* Copyright 2020 The SkyWater PDK Authors
*
* Licensed under the Apache License, Version 2.0 (the "License");
* you may not use this file except in compliance with the License.
* You may obtain a copy of the License at
*
*     https://www.apache.org/licenses/LICENSE-2.0
*
* Unless required by applicable law or agreed to in writing, software
* distributed under the License is distributed on an "AS IS" BASIS,
* WITHOUT WARRANTIES OR CONDITIONS OF ANY KIND, either express or implied.
* See the License for the specific language governing permissions and
* limitations under the License.
*
* SPDX-License-Identifier: Apache-2.0


.subckt sky130_fd_sc_hs__a2111o_1 A1 A2 B1 C1 D1 VGND VNB VPB VPWR X
M1000 a_431_392# C1 a_353_392# VPB pshort w=1e+06u l=150000u
+  ad=2.4e+11p pd=2.48e+06u as=2.4e+11p ps=2.48e+06u
M1001 a_168_136# A1 a_85_136# VNB nlowvt w=640000u l=150000u
+  ad=1.344e+11p pd=1.7e+06u as=5.184e+11p ps=5.46e+06u
M1002 a_85_136# D1 VGND VNB nlowvt w=640000u l=150000u
+  ad=0p pd=0u as=7.465e+11p ps=6.29e+06u
M1003 VGND A2 a_168_136# VNB nlowvt w=640000u l=150000u
+  ad=0p pd=0u as=0p ps=0u
M1004 a_85_136# B1 VGND VNB nlowvt w=640000u l=150000u
+  ad=0p pd=0u as=0p ps=0u
M1005 VGND C1 a_85_136# VNB nlowvt w=640000u l=150000u
+  ad=0p pd=0u as=0p ps=0u
M1006 a_80_392# A2 VPWR VPB pshort w=1e+06u l=150000u
+  ad=5.75e+11p pd=5.15e+06u as=6.48e+11p ps=5.47e+06u
M1007 a_353_392# B1 a_80_392# VPB pshort w=1e+06u l=150000u
+  ad=0p pd=0u as=0p ps=0u
M1008 X a_85_136# VGND VNB nlowvt w=740000u l=150000u
+  ad=1.961e+11p pd=2.01e+06u as=0p ps=0u
M1009 a_85_136# D1 a_431_392# VPB pshort w=1e+06u l=150000u
+  ad=2.75e+11p pd=2.55e+06u as=0p ps=0u
M1010 VPWR A1 a_80_392# VPB pshort w=1e+06u l=150000u
+  ad=0p pd=0u as=0p ps=0u
M1011 X a_85_136# VPWR VPB pshort w=1.12e+06u l=150000u
+  ad=3.08e+11p pd=2.79e+06u as=0p ps=0u
.ends


******* EOF

* Copyright 2020 The SkyWater PDK Authors
*
* Licensed under the Apache License, Version 2.0 (the "License");
* you may not use this file except in compliance with the License.
* You may obtain a copy of the License at
*
*     https://www.apache.org/licenses/LICENSE-2.0
*
* Unless required by applicable law or agreed to in writing, software
* distributed under the License is distributed on an "AS IS" BASIS,
* WITHOUT WARRANTIES OR CONDITIONS OF ANY KIND, either express or implied.
* See the License for the specific language governing permissions and
* limitations under the License.
*
* SPDX-License-Identifier: Apache-2.0


.subckt sky130_fd_sc_hs__a2111o_2 A1 A2 B1 C1 D1 VGND VNB VPB VPWR X
M1000 a_522_368# C1 a_444_368# VPB pshort w=1.12e+06u l=150000u
+  ad=4.368e+11p pd=3.02e+06u as=2.688e+11p ps=2.72e+06u
M1001 a_444_368# D1 a_91_244# VPB pshort w=1.12e+06u l=150000u
+  ad=0p pd=0u as=3.08e+11p ps=2.79e+06u
M1002 a_630_368# B1 a_522_368# VPB pshort w=1.12e+06u l=150000u
+  ad=7.448e+11p pd=5.81e+06u as=0p ps=0u
M1003 VPWR A2 a_630_368# VPB pshort w=1.12e+06u l=150000u
+  ad=1.0528e+12p pd=8.6e+06u as=0p ps=0u
M1004 a_91_244# C1 VGND VNB nlowvt w=740000u l=150000u
+  ad=5.994e+11p pd=6.06e+06u as=1.0508e+12p ps=8.76e+06u
M1005 VGND a_91_244# X VNB nlowvt w=740000u l=150000u
+  ad=0p pd=0u as=2.072e+11p ps=2.04e+06u
M1006 X a_91_244# VGND VNB nlowvt w=740000u l=150000u
+  ad=0p pd=0u as=0p ps=0u
M1007 a_771_74# A2 VGND VNB nlowvt w=740000u l=150000u
+  ad=1.554e+11p pd=1.9e+06u as=0p ps=0u
M1008 a_91_244# A1 a_771_74# VNB nlowvt w=740000u l=150000u
+  ad=0p pd=0u as=0p ps=0u
M1009 VGND B1 a_91_244# VNB nlowvt w=740000u l=150000u
+  ad=0p pd=0u as=0p ps=0u
M1010 VGND D1 a_91_244# VNB nlowvt w=740000u l=150000u
+  ad=0p pd=0u as=0p ps=0u
M1011 X a_91_244# VPWR VPB pshort w=1.12e+06u l=150000u
+  ad=3.36e+11p pd=2.84e+06u as=0p ps=0u
M1012 VPWR a_91_244# X VPB pshort w=1.12e+06u l=150000u
+  ad=0p pd=0u as=0p ps=0u
M1013 a_630_368# A1 VPWR VPB pshort w=1.12e+06u l=150000u
+  ad=0p pd=0u as=0p ps=0u
.ends


******* EOF

* Copyright 2020 The SkyWater PDK Authors
*
* Licensed under the Apache License, Version 2.0 (the "License");
* you may not use this file except in compliance with the License.
* You may obtain a copy of the License at
*
*     https://www.apache.org/licenses/LICENSE-2.0
*
* Unless required by applicable law or agreed to in writing, software
* distributed under the License is distributed on an "AS IS" BASIS,
* WITHOUT WARRANTIES OR CONDITIONS OF ANY KIND, either express or implied.
* See the License for the specific language governing permissions and
* limitations under the License.
*
* SPDX-License-Identifier: Apache-2.0


.subckt sky130_fd_sc_hs__a2111o_4 A1 A2 B1 C1 D1 VGND VNB VPB VPWR X
M1000 a_1013_392# B1 a_814_392# VPB pshort w=1e+06u l=150000u
+  ad=1.15e+12p pd=1.03e+07u as=6e+11p ps=5.2e+06u
M1001 a_137_260# A1 a_1210_74# VNB nlowvt w=640000u l=150000u
+  ad=7.168e+11p pd=7.36e+06u as=5.184e+11p ps=5.46e+06u
M1002 VPWR A1 a_1013_392# VPB pshort w=1e+06u l=150000u
+  ad=1.552e+12p pd=1.362e+07u as=0p ps=0u
M1003 a_1013_392# A1 VPWR VPB pshort w=1e+06u l=150000u
+  ad=0p pd=0u as=0p ps=0u
M1004 VPWR A2 a_1013_392# VPB pshort w=1e+06u l=150000u
+  ad=0p pd=0u as=0p ps=0u
M1005 VGND a_137_260# X VNB nlowvt w=740000u l=150000u
+  ad=1.3711e+12p pd=1.359e+07u as=4.144e+11p ps=4.08e+06u
M1006 VGND C1 a_137_260# VNB nlowvt w=640000u l=150000u
+  ad=0p pd=0u as=0p ps=0u
M1007 a_1013_392# A2 VPWR VPB pshort w=1e+06u l=150000u
+  ad=0p pd=0u as=0p ps=0u
M1008 X a_137_260# VPWR VPB pshort w=1.12e+06u l=150000u
+  ad=6.72e+11p pd=5.68e+06u as=0p ps=0u
M1009 a_1210_74# A2 VGND VNB nlowvt w=640000u l=150000u
+  ad=0p pd=0u as=0p ps=0u
M1010 a_137_260# D1 a_549_392# VPB pshort w=1e+06u l=150000u
+  ad=3e+11p pd=2.6e+06u as=8.5e+11p ps=7.7e+06u
M1011 VPWR a_137_260# X VPB pshort w=1.12e+06u l=150000u
+  ad=0p pd=0u as=0p ps=0u
M1012 VGND B1 a_137_260# VNB nlowvt w=640000u l=150000u
+  ad=0p pd=0u as=0p ps=0u
M1013 X a_137_260# VPWR VPB pshort w=1.12e+06u l=150000u
+  ad=0p pd=0u as=0p ps=0u
M1014 VPWR a_137_260# X VPB pshort w=1.12e+06u l=150000u
+  ad=0p pd=0u as=0p ps=0u
M1015 a_549_392# D1 a_137_260# VPB pshort w=1e+06u l=150000u
+  ad=0p pd=0u as=0p ps=0u
M1016 VGND a_137_260# X VNB nlowvt w=740000u l=150000u
+  ad=0p pd=0u as=0p ps=0u
M1017 a_137_260# D1 VGND VNB nlowvt w=640000u l=150000u
+  ad=0p pd=0u as=0p ps=0u
M1018 a_814_392# C1 a_549_392# VPB pshort w=1e+06u l=150000u
+  ad=0p pd=0u as=0p ps=0u
M1019 a_1210_74# A1 a_137_260# VNB nlowvt w=640000u l=150000u
+  ad=0p pd=0u as=0p ps=0u
M1020 a_549_392# C1 a_814_392# VPB pshort w=1e+06u l=150000u
+  ad=0p pd=0u as=0p ps=0u
M1021 X a_137_260# VGND VNB nlowvt w=740000u l=150000u
+  ad=0p pd=0u as=0p ps=0u
M1022 VGND D1 a_137_260# VNB nlowvt w=640000u l=150000u
+  ad=0p pd=0u as=0p ps=0u
M1023 a_137_260# C1 VGND VNB nlowvt w=640000u l=150000u
+  ad=0p pd=0u as=0p ps=0u
M1024 a_814_392# B1 a_1013_392# VPB pshort w=1e+06u l=150000u
+  ad=0p pd=0u as=0p ps=0u
M1025 X a_137_260# VGND VNB nlowvt w=740000u l=150000u
+  ad=0p pd=0u as=0p ps=0u
M1026 a_137_260# B1 VGND VNB nlowvt w=640000u l=150000u
+  ad=0p pd=0u as=0p ps=0u
M1027 VGND A2 a_1210_74# VNB nlowvt w=640000u l=150000u
+  ad=0p pd=0u as=0p ps=0u
.ends


******* EOF

* Copyright 2020 The SkyWater PDK Authors
*
* Licensed under the Apache License, Version 2.0 (the "License");
* you may not use this file except in compliance with the License.
* You may obtain a copy of the License at
*
*     https://www.apache.org/licenses/LICENSE-2.0
*
* Unless required by applicable law or agreed to in writing, software
* distributed under the License is distributed on an "AS IS" BASIS,
* WITHOUT WARRANTIES OR CONDITIONS OF ANY KIND, either express or implied.
* See the License for the specific language governing permissions and
* limitations under the License.
*
* SPDX-License-Identifier: Apache-2.0


.subckt sky130_fd_sc_hs__a2111oi_1 A1 A2 B1 C1 D1 VGND VNB VPB VPWR Y
M1000 a_156_368# D1 Y VPB pshort w=1.12e+06u l=150000u
+  ad=2.688e+11p pd=2.72e+06u as=3.08e+11p ps=2.79e+06u
M1001 a_342_368# B1 a_234_368# VPB pshort w=1.12e+06u l=150000u
+  ad=7.448e+11p pd=5.81e+06u as=4.368e+11p ps=3.02e+06u
M1002 VGND A2 a_461_74# VNB nlowvt w=740000u l=150000u
+  ad=7.77e+11p pd=6.54e+06u as=2.368e+11p ps=2.12e+06u
M1003 a_461_74# A1 Y VNB nlowvt w=740000u l=150000u
+  ad=0p pd=0u as=4.144e+11p ps=4.08e+06u
M1004 Y D1 VGND VNB nlowvt w=740000u l=150000u
+  ad=0p pd=0u as=0p ps=0u
M1005 VPWR A1 a_342_368# VPB pshort w=1.12e+06u l=150000u
+  ad=4.368e+11p pd=3.02e+06u as=0p ps=0u
M1006 a_342_368# A2 VPWR VPB pshort w=1.12e+06u l=150000u
+  ad=0p pd=0u as=0p ps=0u
M1007 a_234_368# C1 a_156_368# VPB pshort w=1.12e+06u l=150000u
+  ad=0p pd=0u as=0p ps=0u
M1008 VGND C1 Y VNB nlowvt w=740000u l=150000u
+  ad=0p pd=0u as=0p ps=0u
M1009 Y B1 VGND VNB nlowvt w=740000u l=150000u
+  ad=0p pd=0u as=0p ps=0u
.ends


******* EOF

* Copyright 2020 The SkyWater PDK Authors
*
* Licensed under the Apache License, Version 2.0 (the "License");
* you may not use this file except in compliance with the License.
* You may obtain a copy of the License at
*
*     https://www.apache.org/licenses/LICENSE-2.0
*
* Unless required by applicable law or agreed to in writing, software
* distributed under the License is distributed on an "AS IS" BASIS,
* WITHOUT WARRANTIES OR CONDITIONS OF ANY KIND, either express or implied.
* See the License for the specific language governing permissions and
* limitations under the License.
*
* SPDX-License-Identifier: Apache-2.0


.subckt sky130_fd_sc_hs__a2111oi_2 A1 A2 B1 C1 D1 VGND VNB VPB VPWR Y
M1000 VPWR A1 a_533_368# VPB pshort w=1.12e+06u l=150000u
+  ad=6.72e+11p pd=5.68e+06u as=1.288e+12p ps=1.126e+07u
M1001 VGND C1 Y VNB nlowvt w=740000u l=150000u
+  ad=7.141e+11p pd=6.37e+06u as=6.919e+11p ps=6.31e+06u
M1002 a_533_368# A1 VPWR VPB pshort w=1.12e+06u l=150000u
+  ad=0p pd=0u as=0p ps=0u
M1003 a_722_74# A1 Y VNB nlowvt w=740000u l=150000u
+  ad=5.994e+11p pd=6.06e+06u as=0p ps=0u
M1004 VPWR A2 a_533_368# VPB pshort w=1.12e+06u l=150000u
+  ad=0p pd=0u as=0p ps=0u
M1005 a_722_74# A2 VGND VNB nlowvt w=740000u l=150000u
+  ad=0p pd=0u as=0p ps=0u
M1006 a_533_368# A2 VPWR VPB pshort w=1.12e+06u l=150000u
+  ad=0p pd=0u as=0p ps=0u
M1007 Y D1 VGND VNB nlowvt w=740000u l=150000u
+  ad=0p pd=0u as=0p ps=0u
M1008 Y D1 a_69_368# VPB pshort w=1.12e+06u l=150000u
+  ad=3.36e+11p pd=2.84e+06u as=9.52e+11p ps=8.42e+06u
M1009 a_69_368# D1 Y VPB pshort w=1.12e+06u l=150000u
+  ad=0p pd=0u as=0p ps=0u
M1010 Y B1 VGND VNB nlowvt w=740000u l=150000u
+  ad=0p pd=0u as=0p ps=0u
M1011 a_334_368# C1 a_69_368# VPB pshort w=1.12e+06u l=150000u
+  ad=6.72e+11p pd=5.68e+06u as=0p ps=0u
M1012 VGND A2 a_722_74# VNB nlowvt w=740000u l=150000u
+  ad=0p pd=0u as=0p ps=0u
M1013 Y A1 a_722_74# VNB nlowvt w=740000u l=150000u
+  ad=0p pd=0u as=0p ps=0u
M1014 a_69_368# C1 a_334_368# VPB pshort w=1.12e+06u l=150000u
+  ad=0p pd=0u as=0p ps=0u
M1015 a_334_368# B1 a_533_368# VPB pshort w=1.12e+06u l=150000u
+  ad=0p pd=0u as=0p ps=0u
M1016 a_533_368# B1 a_334_368# VPB pshort w=1.12e+06u l=150000u
+  ad=0p pd=0u as=0p ps=0u
.ends


******* EOF

* Copyright 2020 The SkyWater PDK Authors
*
* Licensed under the Apache License, Version 2.0 (the "License");
* you may not use this file except in compliance with the License.
* You may obtain a copy of the License at
*
*     https://www.apache.org/licenses/LICENSE-2.0
*
* Unless required by applicable law or agreed to in writing, software
* distributed under the License is distributed on an "AS IS" BASIS,
* WITHOUT WARRANTIES OR CONDITIONS OF ANY KIND, either express or implied.
* See the License for the specific language governing permissions and
* limitations under the License.
*
* SPDX-License-Identifier: Apache-2.0


.subckt sky130_fd_sc_hs__a2111oi_4 A1 A2 B1 C1 D1 VGND VNB VPB VPWR Y
M1000 Y D1 a_29_368# VPB pshort w=1.12e+06u l=150000u
+  ad=6.72e+11p pd=5.68e+06u as=1.624e+12p ps=1.41e+07u
M1001 a_29_368# D1 Y VPB pshort w=1.12e+06u l=150000u
+  ad=0p pd=0u as=0p ps=0u
M1002 Y D1 a_29_368# VPB pshort w=1.12e+06u l=150000u
+  ad=0p pd=0u as=0p ps=0u
M1003 a_29_368# D1 Y VPB pshort w=1.12e+06u l=150000u
+  ad=0p pd=0u as=0p ps=0u
M1004 a_853_368# B1 a_474_368# VPB pshort w=1.12e+06u l=150000u
+  ad=2.3184e+12p pd=1.982e+07u as=1.344e+12p ps=1.136e+07u
M1005 a_1228_74# A2 VGND VNB nlowvt w=740000u l=150000u
+  ad=1.0434e+12p pd=1.022e+07u as=1.887e+12p ps=1.398e+07u
M1006 a_1228_74# A1 Y VNB nlowvt w=740000u l=150000u
+  ad=0p pd=0u as=1.036e+12p ps=1.02e+07u
M1007 a_474_368# C1 a_29_368# VPB pshort w=1.12e+06u l=150000u
+  ad=0p pd=0u as=0p ps=0u
M1008 a_1228_74# A1 Y VNB nlowvt w=740000u l=150000u
+  ad=0p pd=0u as=0p ps=0u
M1009 a_29_368# C1 a_474_368# VPB pshort w=1.12e+06u l=150000u
+  ad=0p pd=0u as=0p ps=0u
M1010 a_474_368# B1 a_853_368# VPB pshort w=1.12e+06u l=150000u
+  ad=0p pd=0u as=0p ps=0u
M1011 Y B1 VGND VNB nlowvt w=740000u l=150000u
+  ad=0p pd=0u as=0p ps=0u
M1012 a_474_368# C1 a_29_368# VPB pshort w=1.12e+06u l=150000u
+  ad=0p pd=0u as=0p ps=0u
M1013 a_853_368# B1 a_474_368# VPB pshort w=1.12e+06u l=150000u
+  ad=0p pd=0u as=0p ps=0u
M1014 a_29_368# C1 a_474_368# VPB pshort w=1.12e+06u l=150000u
+  ad=0p pd=0u as=0p ps=0u
M1015 Y C1 VGND VNB nlowvt w=740000u l=150000u
+  ad=0p pd=0u as=0p ps=0u
M1016 VPWR A1 a_853_368# VPB pshort w=1.12e+06u l=150000u
+  ad=1.344e+12p pd=1.136e+07u as=0p ps=0u
M1017 Y D1 VGND VNB nlowvt w=740000u l=150000u
+  ad=0p pd=0u as=0p ps=0u
M1018 VGND A2 a_1228_74# VNB nlowvt w=740000u l=150000u
+  ad=0p pd=0u as=0p ps=0u
M1019 a_853_368# A1 VPWR VPB pshort w=1.12e+06u l=150000u
+  ad=0p pd=0u as=0p ps=0u
M1020 VPWR A1 a_853_368# VPB pshort w=1.12e+06u l=150000u
+  ad=0p pd=0u as=0p ps=0u
M1021 a_853_368# A1 VPWR VPB pshort w=1.12e+06u l=150000u
+  ad=0p pd=0u as=0p ps=0u
M1022 VGND B1 Y VNB nlowvt w=740000u l=150000u
+  ad=0p pd=0u as=0p ps=0u
M1023 VPWR A2 a_853_368# VPB pshort w=1.12e+06u l=150000u
+  ad=0p pd=0u as=0p ps=0u
M1024 a_1228_74# A2 VGND VNB nlowvt w=740000u l=150000u
+  ad=0p pd=0u as=0p ps=0u
M1025 VGND C1 Y VNB nlowvt w=740000u l=150000u
+  ad=0p pd=0u as=0p ps=0u
M1026 a_853_368# A2 VPWR VPB pshort w=1.12e+06u l=150000u
+  ad=0p pd=0u as=0p ps=0u
M1027 VGND A2 a_1228_74# VNB nlowvt w=740000u l=150000u
+  ad=0p pd=0u as=0p ps=0u
M1028 VGND D1 Y VNB nlowvt w=740000u l=150000u
+  ad=0p pd=0u as=0p ps=0u
M1029 Y A1 a_1228_74# VNB nlowvt w=740000u l=150000u
+  ad=0p pd=0u as=0p ps=0u
M1030 a_474_368# B1 a_853_368# VPB pshort w=1.12e+06u l=150000u
+  ad=0p pd=0u as=0p ps=0u
M1031 VPWR A2 a_853_368# VPB pshort w=1.12e+06u l=150000u
+  ad=0p pd=0u as=0p ps=0u
M1032 Y A1 a_1228_74# VNB nlowvt w=740000u l=150000u
+  ad=0p pd=0u as=0p ps=0u
M1033 a_853_368# A2 VPWR VPB pshort w=1.12e+06u l=150000u
+  ad=0p pd=0u as=0p ps=0u
.ends


******* EOF

* Copyright 2020 The SkyWater PDK Authors
*
* Licensed under the Apache License, Version 2.0 (the "License");
* you may not use this file except in compliance with the License.
* You may obtain a copy of the License at
*
*     https://www.apache.org/licenses/LICENSE-2.0
*
* Unless required by applicable law or agreed to in writing, software
* distributed under the License is distributed on an "AS IS" BASIS,
* WITHOUT WARRANTIES OR CONDITIONS OF ANY KIND, either express or implied.
* See the License for the specific language governing permissions and
* limitations under the License.
*
* SPDX-License-Identifier: Apache-2.0


.subckt sky130_fd_sc_hs__a211o_1 A1 A2 B1 C1 VGND VNB VPB VPWR X
M1000 VPWR a_81_264# X VPB pshort w=1.12e+06u l=150000u
+  ad=6.38e+11p pd=5.45e+06u as=3.08e+11p ps=2.79e+06u
M1001 a_279_392# A1 VPWR VPB pshort w=1e+06u l=150000u
+  ad=5.75e+11p pd=5.15e+06u as=0p ps=0u
M1002 VPWR A2 a_279_392# VPB pshort w=1e+06u l=150000u
+  ad=0p pd=0u as=0p ps=0u
M1003 a_550_392# B1 a_279_392# VPB pshort w=1e+06u l=150000u
+  ad=2.4e+11p pd=2.48e+06u as=0p ps=0u
M1004 VGND a_81_264# X VNB nlowvt w=740000u l=150000u
+  ad=5.3685e+11p pd=4.68e+06u as=1.961e+11p ps=2.01e+06u
M1005 VGND B1 a_81_264# VNB nlowvt w=640000u l=150000u
+  ad=0p pd=0u as=3.488e+11p ps=3.65e+06u
M1006 a_81_264# C1 VGND VNB nlowvt w=640000u l=150000u
+  ad=0p pd=0u as=0p ps=0u
M1007 a_81_264# C1 a_550_392# VPB pshort w=1e+06u l=150000u
+  ad=2.75e+11p pd=2.55e+06u as=0p ps=0u
M1008 a_366_136# A2 VGND VNB nlowvt w=640000u l=150000u
+  ad=2.08e+11p pd=1.93e+06u as=0p ps=0u
M1009 a_81_264# A1 a_366_136# VNB nlowvt w=640000u l=150000u
+  ad=0p pd=0u as=0p ps=0u
.ends


******* EOF

* Copyright 2020 The SkyWater PDK Authors
*
* Licensed under the Apache License, Version 2.0 (the "License");
* you may not use this file except in compliance with the License.
* You may obtain a copy of the License at
*
*     https://www.apache.org/licenses/LICENSE-2.0
*
* Unless required by applicable law or agreed to in writing, software
* distributed under the License is distributed on an "AS IS" BASIS,
* WITHOUT WARRANTIES OR CONDITIONS OF ANY KIND, either express or implied.
* See the License for the specific language governing permissions and
* limitations under the License.
*
* SPDX-License-Identifier: Apache-2.0


.subckt sky130_fd_sc_hs__a211o_2 A1 A2 B1 C1 VGND VNB VPB VPWR X
M1000 a_85_270# A1 a_399_74# VNB nlowvt w=740000u l=150000u
+  ad=4.847e+11p pd=4.27e+06u as=1.554e+11p ps=1.9e+06u
M1001 X a_85_270# VPWR VPB pshort w=1.12e+06u l=150000u
+  ad=3.36e+11p pd=2.84e+06u as=1.006e+12p ps=8.36e+06u
M1002 VPWR a_85_270# X VPB pshort w=1.12e+06u l=150000u
+  ad=0p pd=0u as=0p ps=0u
M1003 a_399_74# A2 VGND VNB nlowvt w=740000u l=150000u
+  ad=0p pd=0u as=9.731e+11p ps=7.07e+06u
M1004 VPWR A2 a_317_392# VPB pshort w=1e+06u l=150000u
+  ad=0p pd=0u as=5.75e+11p ps=5.15e+06u
M1005 VGND a_85_270# X VNB nlowvt w=740000u l=150000u
+  ad=0p pd=0u as=2.072e+11p ps=2.04e+06u
M1006 VGND B1 a_85_270# VNB nlowvt w=740000u l=150000u
+  ad=0p pd=0u as=0p ps=0u
M1007 a_317_392# A1 VPWR VPB pshort w=1e+06u l=150000u
+  ad=0p pd=0u as=0p ps=0u
M1008 a_600_392# B1 a_317_392# VPB pshort w=1e+06u l=150000u
+  ad=2.7e+11p pd=2.54e+06u as=0p ps=0u
M1009 X a_85_270# VGND VNB nlowvt w=740000u l=150000u
+  ad=0p pd=0u as=0p ps=0u
M1010 a_85_270# C1 VGND VNB nlowvt w=740000u l=150000u
+  ad=0p pd=0u as=0p ps=0u
M1011 a_85_270# C1 a_600_392# VPB pshort w=1e+06u l=150000u
+  ad=2.75e+11p pd=2.55e+06u as=0p ps=0u
.ends


******* EOF

* Copyright 2020 The SkyWater PDK Authors
*
* Licensed under the Apache License, Version 2.0 (the "License");
* you may not use this file except in compliance with the License.
* You may obtain a copy of the License at
*
*     https://www.apache.org/licenses/LICENSE-2.0
*
* Unless required by applicable law or agreed to in writing, software
* distributed under the License is distributed on an "AS IS" BASIS,
* WITHOUT WARRANTIES OR CONDITIONS OF ANY KIND, either express or implied.
* See the License for the specific language governing permissions and
* limitations under the License.
*
* SPDX-License-Identifier: Apache-2.0


.subckt sky130_fd_sc_hs__a211o_4 A1 A2 B1 C1 VGND VNB VPB VPWR X
M1000 VPWR a_105_280# X VPB pshort w=1.12e+06u l=150000u
+  ad=1.907e+12p pd=1.433e+07u as=6.72e+11p ps=5.68e+06u
M1001 a_1064_123# A2 VGND VNB nlowvt w=640000u l=150000u
+  ad=3.584e+11p pd=3.68e+06u as=1.50765e+12p ps=1.284e+07u
M1002 a_517_392# B1 a_602_392# VPB pshort w=1e+06u l=150000u
+  ad=1.155e+12p pd=1.031e+07u as=6.75e+11p ps=5.35e+06u
M1003 X a_105_280# VGND VNB nlowvt w=740000u l=150000u
+  ad=4.144e+11p pd=4.08e+06u as=0p ps=0u
M1004 a_105_280# A1 a_1064_123# VNB nlowvt w=640000u l=150000u
+  ad=5.79525e+11p pd=5.76e+06u as=0p ps=0u
M1005 a_602_392# B1 a_517_392# VPB pshort w=1e+06u l=150000u
+  ad=0p pd=0u as=0p ps=0u
M1006 a_105_280# C1 a_602_392# VPB pshort w=1e+06u l=150000u
+  ad=3e+11p pd=2.6e+06u as=0p ps=0u
M1007 a_517_392# A1 VPWR VPB pshort w=1e+06u l=150000u
+  ad=0p pd=0u as=0p ps=0u
M1008 a_602_392# C1 a_105_280# VPB pshort w=1e+06u l=150000u
+  ad=0p pd=0u as=0p ps=0u
M1009 a_105_280# B1 VGND VNB nlowvt w=640000u l=150000u
+  ad=0p pd=0u as=0p ps=0u
M1010 VPWR A1 a_517_392# VPB pshort w=1e+06u l=150000u
+  ad=0p pd=0u as=0p ps=0u
M1011 a_517_392# A2 VPWR VPB pshort w=1e+06u l=150000u
+  ad=0p pd=0u as=0p ps=0u
M1012 VGND a_105_280# X VNB nlowvt w=740000u l=150000u
+  ad=0p pd=0u as=0p ps=0u
M1013 X a_105_280# VGND VNB nlowvt w=740000u l=150000u
+  ad=0p pd=0u as=0p ps=0u
M1014 VGND B1 a_105_280# VNB nlowvt w=640000u l=150000u
+  ad=0p pd=0u as=0p ps=0u
M1015 X a_105_280# VPWR VPB pshort w=1.12e+06u l=150000u
+  ad=0p pd=0u as=0p ps=0u
M1016 a_1064_123# A1 a_105_280# VNB nlowvt w=640000u l=150000u
+  ad=0p pd=0u as=0p ps=0u
M1017 VGND a_105_280# X VNB nlowvt w=740000u l=150000u
+  ad=0p pd=0u as=0p ps=0u
M1018 a_105_280# C1 VGND VNB nlowvt w=640000u l=150000u
+  ad=0p pd=0u as=0p ps=0u
M1019 VPWR a_105_280# X VPB pshort w=1.12e+06u l=150000u
+  ad=0p pd=0u as=0p ps=0u
M1020 VGND C1 a_105_280# VNB nlowvt w=640000u l=150000u
+  ad=0p pd=0u as=0p ps=0u
M1021 VPWR A2 a_517_392# VPB pshort w=1e+06u l=150000u
+  ad=0p pd=0u as=0p ps=0u
M1022 X a_105_280# VPWR VPB pshort w=1.12e+06u l=150000u
+  ad=0p pd=0u as=0p ps=0u
M1023 VGND A2 a_1064_123# VNB nlowvt w=640000u l=150000u
+  ad=0p pd=0u as=0p ps=0u
.ends


******* EOF

* Copyright 2020 The SkyWater PDK Authors
*
* Licensed under the Apache License, Version 2.0 (the "License");
* you may not use this file except in compliance with the License.
* You may obtain a copy of the License at
*
*     https://www.apache.org/licenses/LICENSE-2.0
*
* Unless required by applicable law or agreed to in writing, software
* distributed under the License is distributed on an "AS IS" BASIS,
* WITHOUT WARRANTIES OR CONDITIONS OF ANY KIND, either express or implied.
* See the License for the specific language governing permissions and
* limitations under the License.
*
* SPDX-License-Identifier: Apache-2.0


.subckt sky130_fd_sc_hs__a211oi_1 A1 A2 B1 C1 VGND VNB VPB VPWR Y
M1000 VPWR A2 a_71_368# VPB pshort w=1.12e+06u l=150000u
+  ad=4.368e+11p pd=3.02e+06u as=6.44e+11p ps=5.63e+06u
M1001 Y A1 a_159_74# VNB nlowvt w=740000u l=150000u
+  ad=4.847e+11p pd=4.27e+06u as=1.554e+11p ps=1.9e+06u
M1002 a_159_74# A2 VGND VNB nlowvt w=740000u l=150000u
+  ad=0p pd=0u as=4.847e+11p ps=4.27e+06u
M1003 a_71_368# A1 VPWR VPB pshort w=1.12e+06u l=150000u
+  ad=0p pd=0u as=0p ps=0u
M1004 Y C1 a_354_368# VPB pshort w=1.12e+06u l=150000u
+  ad=3.08e+11p pd=2.79e+06u as=3.696e+11p ps=2.9e+06u
M1005 a_354_368# B1 a_71_368# VPB pshort w=1.12e+06u l=150000u
+  ad=0p pd=0u as=0p ps=0u
M1006 VGND B1 Y VNB nlowvt w=740000u l=150000u
+  ad=0p pd=0u as=0p ps=0u
M1007 Y C1 VGND VNB nlowvt w=740000u l=150000u
+  ad=0p pd=0u as=0p ps=0u
.ends


******* EOF

* Copyright 2020 The SkyWater PDK Authors
*
* Licensed under the Apache License, Version 2.0 (the "License");
* you may not use this file except in compliance with the License.
* You may obtain a copy of the License at
*
*     https://www.apache.org/licenses/LICENSE-2.0
*
* Unless required by applicable law or agreed to in writing, software
* distributed under the License is distributed on an "AS IS" BASIS,
* WITHOUT WARRANTIES OR CONDITIONS OF ANY KIND, either express or implied.
* See the License for the specific language governing permissions and
* limitations under the License.
*
* SPDX-License-Identifier: Apache-2.0


.subckt sky130_fd_sc_hs__a211oi_2 A1 A2 B1 C1 VGND VNB VPB VPWR Y
M1000 a_114_368# A1 VPWR VPB pshort w=1.12e+06u l=150000u
+  ad=1.008e+12p pd=8.52e+06u as=9.744e+11p ps=8.46e+06u
M1001 VPWR A1 a_114_368# VPB pshort w=1.12e+06u l=150000u
+  ad=0p pd=0u as=0p ps=0u
M1002 a_38_74# A2 VGND VNB nlowvt w=740000u l=150000u
+  ad=6.216e+11p pd=6.12e+06u as=6.438e+11p ps=6.18e+06u
M1003 Y B1 VGND VNB nlowvt w=740000u l=150000u
+  ad=7.4e+11p pd=4.96e+06u as=0p ps=0u
M1004 a_114_368# A2 VPWR VPB pshort w=1.12e+06u l=150000u
+  ad=0p pd=0u as=0p ps=0u
M1005 VGND A2 a_38_74# VNB nlowvt w=740000u l=150000u
+  ad=0p pd=0u as=0p ps=0u
M1006 VPWR A2 a_114_368# VPB pshort w=1.12e+06u l=150000u
+  ad=0p pd=0u as=0p ps=0u
M1007 VGND C1 Y VNB nlowvt w=740000u l=150000u
+  ad=0p pd=0u as=0p ps=0u
M1008 Y A1 a_38_74# VNB nlowvt w=740000u l=150000u
+  ad=0p pd=0u as=0p ps=0u
M1009 a_114_368# B1 a_497_368# VPB pshort w=1.12e+06u l=150000u
+  ad=0p pd=0u as=9.744e+11p ps=8.46e+06u
M1010 a_497_368# B1 a_114_368# VPB pshort w=1.12e+06u l=150000u
+  ad=0p pd=0u as=0p ps=0u
M1011 a_38_74# A1 Y VNB nlowvt w=740000u l=150000u
+  ad=0p pd=0u as=0p ps=0u
M1012 Y C1 a_497_368# VPB pshort w=1.12e+06u l=150000u
+  ad=3.36e+11p pd=2.84e+06u as=0p ps=0u
M1013 a_497_368# C1 Y VPB pshort w=1.12e+06u l=150000u
+  ad=0p pd=0u as=0p ps=0u
.ends


******* EOF

* Copyright 2020 The SkyWater PDK Authors
*
* Licensed under the Apache License, Version 2.0 (the "License");
* you may not use this file except in compliance with the License.
* You may obtain a copy of the License at
*
*     https://www.apache.org/licenses/LICENSE-2.0
*
* Unless required by applicable law or agreed to in writing, software
* distributed under the License is distributed on an "AS IS" BASIS,
* WITHOUT WARRANTIES OR CONDITIONS OF ANY KIND, either express or implied.
* See the License for the specific language governing permissions and
* limitations under the License.
*
* SPDX-License-Identifier: Apache-2.0


.subckt sky130_fd_sc_hs__a211oi_4 A1 A2 B1 C1 VGND VNB VPB VPWR Y
M1000 a_92_74# A1 Y VNB nlowvt w=740000u l=150000u
+  ad=1.0286e+12p pd=1.018e+07u as=1.0138e+12p ps=1.014e+07u
M1001 Y B1 VGND VNB nlowvt w=740000u l=150000u
+  ad=0p pd=0u as=8.288e+11p ps=8.16e+06u
M1002 VPWR A2 a_77_368# VPB pshort w=1.12e+06u l=150000u
+  ad=1.344e+12p pd=1.136e+07u as=2.296e+12p ps=1.978e+07u
M1003 Y C1 a_901_368# VPB pshort w=1.12e+06u l=150000u
+  ad=6.72e+11p pd=5.68e+06u as=1.624e+12p ps=1.41e+07u
M1004 VGND A2 a_92_74# VNB nlowvt w=740000u l=150000u
+  ad=0p pd=0u as=0p ps=0u
M1005 VGND A2 a_92_74# VNB nlowvt w=740000u l=150000u
+  ad=0p pd=0u as=0p ps=0u
M1006 a_77_368# A2 VPWR VPB pshort w=1.12e+06u l=150000u
+  ad=0p pd=0u as=0p ps=0u
M1007 a_901_368# C1 Y VPB pshort w=1.12e+06u l=150000u
+  ad=0p pd=0u as=0p ps=0u
M1008 VPWR A1 a_77_368# VPB pshort w=1.12e+06u l=150000u
+  ad=0p pd=0u as=0p ps=0u
M1009 Y C1 a_901_368# VPB pshort w=1.12e+06u l=150000u
+  ad=0p pd=0u as=0p ps=0u
M1010 Y A1 a_92_74# VNB nlowvt w=740000u l=150000u
+  ad=0p pd=0u as=0p ps=0u
M1011 a_77_368# A1 VPWR VPB pshort w=1.12e+06u l=150000u
+  ad=0p pd=0u as=0p ps=0u
M1012 a_901_368# C1 Y VPB pshort w=1.12e+06u l=150000u
+  ad=0p pd=0u as=0p ps=0u
M1013 a_92_74# A2 VGND VNB nlowvt w=740000u l=150000u
+  ad=0p pd=0u as=0p ps=0u
M1014 VPWR A1 a_77_368# VPB pshort w=1.12e+06u l=150000u
+  ad=0p pd=0u as=0p ps=0u
M1015 a_92_74# A2 VGND VNB nlowvt w=740000u l=150000u
+  ad=0p pd=0u as=0p ps=0u
M1016 a_77_368# A1 VPWR VPB pshort w=1.12e+06u l=150000u
+  ad=0p pd=0u as=0p ps=0u
M1017 a_77_368# B1 a_901_368# VPB pshort w=1.12e+06u l=150000u
+  ad=0p pd=0u as=0p ps=0u
M1018 VGND C1 Y VNB nlowvt w=740000u l=150000u
+  ad=0p pd=0u as=0p ps=0u
M1019 Y C1 VGND VNB nlowvt w=740000u l=150000u
+  ad=0p pd=0u as=0p ps=0u
M1020 VGND B1 Y VNB nlowvt w=740000u l=150000u
+  ad=0p pd=0u as=0p ps=0u
M1021 Y A1 a_92_74# VNB nlowvt w=740000u l=150000u
+  ad=0p pd=0u as=0p ps=0u
M1022 a_901_368# B1 a_77_368# VPB pshort w=1.12e+06u l=150000u
+  ad=0p pd=0u as=0p ps=0u
M1023 VPWR A2 a_77_368# VPB pshort w=1.12e+06u l=150000u
+  ad=0p pd=0u as=0p ps=0u
M1024 a_77_368# B1 a_901_368# VPB pshort w=1.12e+06u l=150000u
+  ad=0p pd=0u as=0p ps=0u
M1025 a_92_74# A1 Y VNB nlowvt w=740000u l=150000u
+  ad=0p pd=0u as=0p ps=0u
M1026 a_77_368# A2 VPWR VPB pshort w=1.12e+06u l=150000u
+  ad=0p pd=0u as=0p ps=0u
M1027 a_901_368# B1 a_77_368# VPB pshort w=1.12e+06u l=150000u
+  ad=0p pd=0u as=0p ps=0u
.ends


******* EOF

* Copyright 2020 The SkyWater PDK Authors
*
* Licensed under the Apache License, Version 2.0 (the "License");
* you may not use this file except in compliance with the License.
* You may obtain a copy of the License at
*
*     https://www.apache.org/licenses/LICENSE-2.0
*
* Unless required by applicable law or agreed to in writing, software
* distributed under the License is distributed on an "AS IS" BASIS,
* WITHOUT WARRANTIES OR CONDITIONS OF ANY KIND, either express or implied.
* See the License for the specific language governing permissions and
* limitations under the License.
*
* SPDX-License-Identifier: Apache-2.0


.subckt sky130_fd_sc_hs__a21bo_1 A1 A2 B1_N VGND VNB VPB VPWR X
M1000 a_122_136# A2 VGND VNB nlowvt w=640000u l=150000u
+  ad=1.344e+11p pd=1.7e+06u as=5.6545e+11p ps=5.75e+06u
M1001 X a_194_136# VGND VNB nlowvt w=740000u l=150000u
+  ad=1.961e+11p pd=2.01e+06u as=0p ps=0u
M1002 VGND a_272_110# a_194_136# VNB nlowvt w=640000u l=150000u
+  ad=0p pd=0u as=2.496e+11p ps=2.06e+06u
M1003 a_34_392# A1 VPWR VPB pshort w=1e+06u l=150000u
+  ad=5.75e+11p pd=5.15e+06u as=7.36e+11p ps=5.67e+06u
M1004 X a_194_136# VPWR VPB pshort w=1.12e+06u l=150000u
+  ad=3.08e+11p pd=2.79e+06u as=0p ps=0u
M1005 a_194_136# a_272_110# a_34_392# VPB pshort w=1e+06u l=150000u
+  ad=2.75e+11p pd=2.55e+06u as=0p ps=0u
M1006 VPWR A2 a_34_392# VPB pshort w=1e+06u l=150000u
+  ad=0p pd=0u as=0p ps=0u
M1007 VGND B1_N a_272_110# VNB nlowvt w=550000u l=150000u
+  ad=0p pd=0u as=1.5675e+11p ps=1.67e+06u
M1008 VPWR B1_N a_272_110# VPB pshort w=840000u l=150000u
+  ad=0p pd=0u as=2.31e+11p ps=2.23e+06u
M1009 a_194_136# A1 a_122_136# VNB nlowvt w=640000u l=150000u
+  ad=0p pd=0u as=0p ps=0u
.ends


******* EOF

* Copyright 2020 The SkyWater PDK Authors
*
* Licensed under the Apache License, Version 2.0 (the "License");
* you may not use this file except in compliance with the License.
* You may obtain a copy of the License at
*
*     https://www.apache.org/licenses/LICENSE-2.0
*
* Unless required by applicable law or agreed to in writing, software
* distributed under the License is distributed on an "AS IS" BASIS,
* WITHOUT WARRANTIES OR CONDITIONS OF ANY KIND, either express or implied.
* See the License for the specific language governing permissions and
* limitations under the License.
*