* Copyright 2020 The SkyWater PDK Authors
*
* Licensed under the Apache License, Version 2.0 (the "License");
* you may not use this file except in compliance with the License.
* You may obtain a copy of the License at
*
*     https://www.apache.org/licenses/LICENSE-2.0
*
* Unless required by applicable law or agreed to in writing, software
* distributed under the License is distributed on an "AS IS" BASIS,
* WITHOUT WARRANTIES OR CONDITIONS OF ANY KIND, either express or implied.
* See the License for the specific language governing permissions and
* limitations under the License.
*
* SPDX-License-Identifier: Apache-2.0


.subckt sky130_fd_sc_hdll__a211o_1 A1 A2 B1 C1 VGND VNB VPB VPWR X
M1000 a_80_21# C1 a_546_297# VPB phighvt w=1e+06u l=180000u
+  ad=2.75e+11p pd=2.55e+06u as=3.5e+11p ps=2.7e+06u
M1001 VGND B1 a_80_21# VNB nshort w=650000u l=150000u
+  ad=8.32e+11p pd=5.16e+06u as=3.8675e+11p ps=3.79e+06u
M1002 VPWR a_80_21# X VPB phighvt w=1e+06u l=180000u
+  ad=7.55e+11p pd=5.51e+06u as=2.75e+11p ps=2.55e+06u
M1003 VGND a_80_21# X VNB nshort w=650000u l=150000u
+  ad=0p pd=0u as=1.7225e+11p ps=1.83e+06u
M1004 a_546_297# B1 a_227_297# VPB phighvt w=1e+06u l=180000u
+  ad=0p pd=0u as=5.75e+11p ps=5.15e+06u
M1005 VPWR A2 a_227_297# VPB phighvt w=1e+06u l=180000u
+  ad=0p pd=0u as=0p ps=0u
M1006 a_80_21# A1 a_320_47# VNB nshort w=650000u l=150000u
+  ad=0p pd=0u as=3.315e+11p ps=2.32e+06u
M1007 a_320_47# A2 VGND VNB nshort w=650000u l=150000u
+  ad=0p pd=0u as=0p ps=0u
M1008 a_227_297# A1 VPWR VPB phighvt w=1e+06u l=180000u
+  ad=0p pd=0u as=0p ps=0u
M1009 a_80_21# C1 VGND VNB nshort w=650000u l=150000u
+  ad=0p pd=0u as=0p ps=0u
.ends


******* EOF

* Copyright 2020 The SkyWater PDK Authors
*
* Licensed under the Apache License, Version 2.0 (the "License");
* you may not use this file except in compliance with the License.
* You may obtain a copy of the License at
*
*     https://www.apache.org/licenses/LICENSE-2.0
*
* Unless required by applicable law or agreed to in writing, software
* distributed under the License is distributed on an "AS IS" BASIS,
* WITHOUT WARRANTIES OR CONDITIONS OF ANY KIND, either express or implied.
* See the License for the specific language governing permissions and
* limitations under the License.
*
* SPDX-License-Identifier: Apache-2.0


.subckt sky130_fd_sc_hdll__a211o_2 A1 A2 B1 C1 VGND VNB VPB VPWR X
M1000 VPWR a_79_21# X VPB phighvt w=1e+06u l=180000u
+  ad=9.4e+11p pd=7.88e+06u as=2.9e+11p ps=2.58e+06u
M1001 a_643_297# B1 a_319_297# VPB phighvt w=1e+06u l=180000u
+  ad=2.3e+11p pd=2.46e+06u as=6.8e+11p ps=5.36e+06u
M1002 VGND B1 a_79_21# VNB nshort w=650000u l=150000u
+  ad=1.027e+12p pd=7.06e+06u as=4.5825e+11p ps=4.01e+06u
M1003 a_421_47# A2 VGND VNB nshort w=650000u l=150000u
+  ad=1.5925e+11p pd=1.79e+06u as=0p ps=0u
M1004 a_319_297# A1 VPWR VPB phighvt w=1e+06u l=180000u
+  ad=0p pd=0u as=0p ps=0u
M1005 a_79_21# C1 VGND VNB nshort w=650000u l=150000u
+  ad=0p pd=0u as=0p ps=0u
M1006 X a_79_21# VPWR VPB phighvt w=1e+06u l=180000u
+  ad=0p pd=0u as=0p ps=0u
M1007 VPWR A2 a_319_297# VPB phighvt w=1e+06u l=180000u
+  ad=0p pd=0u as=0p ps=0u
M1008 VGND a_79_21# X VNB nshort w=650000u l=150000u
+  ad=0p pd=0u as=2.145e+11p ps=1.96e+06u
M1009 a_79_21# C1 a_643_297# VPB phighvt w=1e+06u l=180000u
+  ad=2.7e+11p pd=2.54e+06u as=0p ps=0u
M1010 a_79_21# A1 a_421_47# VNB nshort w=650000u l=150000u
+  ad=0p pd=0u as=0p ps=0u
M1011 X a_79_21# VGND VNB nshort w=650000u l=150000u
+  ad=0p pd=0u as=0p ps=0u
.ends


******* EOF

* Copyright 2020 The SkyWater PDK Authors
*
* Licensed under the Apache License, Version 2.0 (the "License");
* you may not use this file except in compliance with the License.
* You may obtain a copy of the License at
*
*     https://www.apache.org/licenses/LICENSE-2.0
*
* Unless required by applicable law or agreed to in writing, software
* distributed under the License is distributed on an "AS IS" BASIS,
* WITHOUT WARRANTIES OR CONDITIONS OF ANY KIND, either express or implied.
* See the License for the specific language governing permissions and
* limitations under the License.
*
* SPDX-License-Identifier: Apache-2.0


.subckt sky130_fd_sc_hdll__a211o_4 A1 A2 B1 C1 VGND VNB VPB VPWR X
M1000 VPWR A2 a_523_297# VPB phighvt w=1e+06u l=180000u
+  ad=1.55e+12p pd=1.31e+07u as=1.25e+12p ps=1.05e+07u
M1001 X a_79_204# VGND VNB nshort w=650000u l=150000u
+  ad=4.7125e+11p pd=4.05e+06u as=1.43325e+12p ps=1.221e+07u
M1002 a_1051_47# A2 VGND VNB nshort w=650000u l=150000u
+  ad=1.82e+11p pd=1.86e+06u as=0p ps=0u
M1003 VPWR a_79_204# X VPB phighvt w=1e+06u l=180000u
+  ad=0p pd=0u as=6e+11p ps=5.2e+06u
M1004 VGND a_79_204# X VNB nshort w=650000u l=150000u
+  ad=0p pd=0u as=0p ps=0u
M1005 X a_79_204# VGND VNB nshort w=650000u l=150000u
+  ad=0p pd=0u as=0p ps=0u
M1006 a_79_204# C1 a_613_297# VPB phighvt w=1e+06u l=180000u
+  ad=3e+11p pd=2.6e+06u as=3e+11p ps=2.6e+06u
M1007 a_79_204# B1 VGND VNB nshort w=650000u l=150000u
+  ad=7.41e+11p pd=6.18e+06u as=0p ps=0u
M1008 VPWR A1 a_523_297# VPB phighvt w=1e+06u l=180000u
+  ad=0p pd=0u as=0p ps=0u
M1009 X a_79_204# VPWR VPB phighvt w=1e+06u l=180000u
+  ad=0p pd=0u as=0p ps=0u
M1010 X a_79_204# VPWR VPB phighvt w=1e+06u l=180000u
+  ad=0p pd=0u as=0p ps=0u
M1011 VGND a_79_204# X VNB nshort w=650000u l=150000u
+  ad=0p pd=0u as=0p ps=0u
M1012 a_79_204# C1 VGND VNB nshort w=650000u l=150000u
+  ad=0p pd=0u as=0p ps=0u
M1013 VGND B1 a_79_204# VNB nshort w=650000u l=150000u
+  ad=0p pd=0u as=0p ps=0u
M1014 a_1243_47# A1 a_79_204# VNB nshort w=650000u l=150000u
+  ad=1.82e+11p pd=1.86e+06u as=0p ps=0u
M1015 a_523_297# B1 a_805_297# VPB phighvt w=1e+06u l=180000u
+  ad=0p pd=0u as=3.4e+11p ps=2.68e+06u
M1016 a_79_204# A1 a_1051_47# VNB nshort w=650000u l=150000u
+  ad=0p pd=0u as=0p ps=0u
M1017 a_613_297# B1 a_523_297# VPB phighvt w=1e+06u l=180000u
+  ad=0p pd=0u as=0p ps=0u
M1018 a_523_297# A1 VPWR VPB phighvt w=1e+06u l=180000u
+  ad=0p pd=0u as=0p ps=0u
M1019 VGND A2 a_1243_47# VNB nshort w=650000u l=150000u
+  ad=0p pd=0u as=0p ps=0u
M1020 VPWR a_79_204# X VPB phighvt w=1e+06u l=180000u
+  ad=0p pd=0u as=0p ps=0u
M1021 a_523_297# A2 VPWR VPB phighvt w=1e+06u l=180000u
+  ad=0p pd=0u as=0p ps=0u
M1022 a_805_297# C1 a_79_204# VPB phighvt w=1e+06u l=180000u
+  ad=0p pd=0u as=0p ps=0u
M1023 VGND C1 a_79_204# VNB nshort w=650000u l=150000u
+  ad=0p pd=0u as=0p ps=0u
.ends


******* EOF

* Copyright 2020 The SkyWater PDK Authors
*
* Licensed under the Apache License, Version 2.0 (the "License");
* you may not use this file except in compliance with the License.
* You may obtain a copy of the License at
*
*     https://www.apache.org/licenses/LICENSE-2.0
*
* Unless required by applicable law or agreed to in writing, software
* distributed under the License is distributed on an "AS IS" BASIS,
* WITHOUT WARRANTIES OR CONDITIONS OF ANY KIND, either express or implied.
* See the License for the specific language governing permissions and
* limitations under the License.
*
* SPDX-License-Identifier: Apache-2.0


.subckt sky130_fd_sc_hdll__a211oi_1 A1 A2 B1 C1 VGND VNB VPB VPWR Y
M1000 VPWR A2 a_27_297# VPB phighvt w=1e+06u l=180000u
+  ad=3.05e+11p pd=2.61e+06u as=6.45e+11p ps=5.29e+06u
M1001 Y C1 a_325_297# VPB phighvt w=1e+06u l=180000u
+  ad=3.6e+11p pd=2.72e+06u as=3.15e+11p ps=2.63e+06u
M1002 a_123_47# A2 VGND VNB nshort w=650000u l=150000u
+  ad=1.8525e+11p pd=1.87e+06u as=4.3875e+11p ps=3.95e+06u
M1003 a_27_297# A1 VPWR VPB phighvt w=1e+06u l=180000u
+  ad=0p pd=0u as=0p ps=0u
M1004 VGND B1 Y VNB nshort w=650000u l=150000u
+  ad=0p pd=0u as=5.1025e+11p ps=4.17e+06u
M1005 a_325_297# B1 a_27_297# VPB phighvt w=1e+06u l=180000u
+  ad=0p pd=0u as=0p ps=0u
M1006 Y A1 a_123_47# VNB nshort w=650000u l=150000u
+  ad=0p pd=0u as=0p ps=0u
M1007 Y C1 VGND VNB nshort w=650000u l=150000u
+  ad=0p pd=0u as=0p ps=0u
.ends


******* EOF

* Copyright 2020 The SkyWater PDK Authors
*
* Licensed under the Apache License, Version 2.0 (the "License");
* you may not use this file except in compliance with the License.
* You may obtain a copy of the License at
*
*     https://www.apache.org/licenses/LICENSE-2.0
*
* Unless required by applicable law or agreed to in writing, software
* distributed under the License is distributed on an "AS IS" BASIS,
* WITHOUT WARRANTIES OR CONDITIONS OF ANY KIND, either express or implied.
* See the License for the specific language governing permissions and
* limitations under the License.
*
* SPDX-License-Identifier: Apache-2.0


.subckt sky130_fd_sc_hdll__a211oi_2 A1 A2 B1 C1 VGND VNB VPB VPWR Y
M1000 VPWR A2 a_320_297# VPB phighvt w=1e+06u l=180000u
+  ad=8.5e+11p pd=7.7e+06u as=9e+11p ps=7.8e+06u
M1001 Y B1 VGND VNB nshort w=650000u l=150000u
+  ad=7.085e+11p pd=6.08e+06u as=8.06e+11p ps=7.68e+06u
M1002 a_525_47# A1 Y VNB nshort w=650000u l=150000u
+  ad=5.265e+11p pd=5.52e+06u as=0p ps=0u
M1003 a_320_297# A1 VPWR VPB phighvt w=1e+06u l=180000u
+  ad=0p pd=0u as=0p ps=0u
M1004 Y C1 a_37_297# VPB phighvt w=1e+06u l=180000u
+  ad=3e+11p pd=2.6e+06u as=8.5e+11p ps=7.7e+06u
M1005 a_320_297# B1 a_37_297# VPB phighvt w=1e+06u l=180000u
+  ad=0p pd=0u as=0p ps=0u
M1006 VGND B1 Y VNB nshort w=650000u l=150000u
+  ad=0p pd=0u as=0p ps=0u
M1007 Y A1 a_525_47# VNB nshort w=650000u l=150000u
+  ad=0p pd=0u as=0p ps=0u
M1008 a_320_297# A2 VPWR VPB phighvt w=1e+06u l=180000u
+  ad=0p pd=0u as=0p ps=0u
M1009 VGND A2 a_525_47# VNB nshort w=650000u l=150000u
+  ad=0p pd=0u as=0p ps=0u
M1010 a_525_47# A2 VGND VNB nshort w=650000u l=150000u
+  ad=0p pd=0u as=0p ps=0u
M1011 a_37_297# C1 Y VPB phighvt w=1e+06u l=180000u
+  ad=0p pd=0u as=0p ps=0u
M1012 Y C1 VGND VNB nshort w=650000u l=150000u
+  ad=0p pd=0u as=0p ps=0u
M1013 a_37_297# B1 a_320_297# VPB phighvt w=1e+06u l=180000u
+  ad=0p pd=0u as=0p ps=0u
M1014 VGND C1 Y VNB nshort w=650000u l=150000u
+  ad=0p pd=0u as=0p ps=0u
M1015 VPWR A1 a_320_297# VPB phighvt w=1e+06u l=180000u
+  ad=0p pd=0u as=0p ps=0u
.ends


******* EOF

* Copyright 2020 The SkyWater PDK Authors
*
* Licensed under the Apache License, Version 2.0 (the "License");
* you may not use this file except in compliance with the License.
* You may obtain a copy of the License at
*
*     https://www.apache.org/licenses/LICENSE-2.0
*
* Unless required by applicable law or agreed to in writing, software
* distributed under the License is distributed on an "AS IS" BASIS,
* WITHOUT WARRANTIES OR CONDITIONS OF ANY KIND, either express or implied.
* See the License for the specific language governing permissions and
* limitations under the License.
*
* SPDX-License-Identifier: Apache-2.0


.subckt sky130_fd_sc_hdll__a211oi_4 A1 A2 B1 C1 VGND VNB VPB VPWR Y
M1000 a_27_297# A2 VPWR VPB phighvt w=1e+06u l=180000u
+  ad=1.99e+12p pd=1.798e+07u as=1.16e+12p ps=1.032e+07u
M1001 VGND C1 Y VNB nshort w=650000u l=150000u
+  ad=1.404e+12p pd=1.342e+07u as=1.365e+12p ps=1.2e+07u
M1002 a_27_297# A2 VPWR VPB phighvt w=1e+06u l=180000u
+  ad=0p pd=0u as=0p ps=0u
M1003 VGND A2 a_119_47# VNB nshort w=650000u l=150000u
+  ad=0p pd=0u as=7.995e+11p ps=7.66e+06u
M1004 Y C1 VGND VNB nshort w=650000u l=150000u
+  ad=0p pd=0u as=0p ps=0u
M1005 VGND B1 Y VNB nshort w=650000u l=150000u
+  ad=0p pd=0u as=0p ps=0u
M1006 a_869_297# C1 Y VPB phighvt w=1e+06u l=180000u
+  ad=5.9e+11p pd=5.18e+06u as=6.2e+11p ps=5.24e+06u
M1007 VPWR A1 a_27_297# VPB phighvt w=1e+06u l=180000u
+  ad=0p pd=0u as=0p ps=0u
M1008 Y B1 VGND VNB nshort w=650000u l=150000u
+  ad=0p pd=0u as=0p ps=0u
M1009 a_1057_297# B1 a_27_297# VPB phighvt w=1e+06u l=180000u
+  ad=3.2e+11p pd=2.64e+06u as=0p ps=0u
M1010 a_27_297# A1 VPWR VPB phighvt w=1e+06u l=180000u
+  ad=0p pd=0u as=0p ps=0u
M1011 VGND A2 a_119_47# VNB nshort w=650000u l=150000u
+  ad=0p pd=0u as=0p ps=0u
M1012 a_119_47# A1 Y VNB nshort w=650000u l=150000u
+  ad=0p pd=0u as=0p ps=0u
M1013 VGND C1 Y VNB nshort w=650000u l=150000u
+  ad=0p pd=0u as=0p ps=0u
M1014 VPWR A2 a_27_297# VPB phighvt w=1e+06u l=180000u
+  ad=0p pd=0u as=0p ps=0u
M1015 Y C1 a_1057_297# VPB phighvt w=1e+06u l=180000u
+  ad=0p pd=0u as=0p ps=0u
M1016 VPWR A1 a_27_297# VPB phighvt w=1e+06u l=180000u
+  ad=0p pd=0u as=0p ps=0u
M1017 a_27_297# B1 a_869_297# VPB phighvt w=1e+06u l=180000u
+  ad=0p pd=0u as=0p ps=0u
M1018 a_27_297# A1 VPWR VPB phighvt w=1e+06u l=180000u
+  ad=0p pd=0u as=0p ps=0u
M1019 Y C1 a_869_297# VPB phighvt w=1e+06u l=180000u
+  ad=0p pd=0u as=0p ps=0u
M1020 a_119_47# A2 VGND VNB nshort w=650000u l=150000u
+  ad=0p pd=0u as=0p ps=0u
M1021 Y B1 VGND VNB nshort w=650000u l=150000u
+  ad=0p pd=0u as=0p ps=0u
M1022 Y C1 VGND VNB nshort w=650000u l=150000u
+  ad=0p pd=0u as=0p ps=0u
M1023 a_869_297# B1 a_27_297# VPB phighvt w=1e+06u l=180000u
+  ad=0p pd=0u as=0p ps=0u
M1024 VGND B1 Y VNB nshort w=650000u l=150000u
+  ad=0p pd=0u as=0p ps=0u
M1025 Y A1 a_119_47# VNB nshort w=650000u l=150000u
+  ad=0p pd=0u as=0p ps=0u
M1026 a_1449_297# C1 Y VPB phighvt w=1e+06u l=180000u
+  ad=3.3e+11p pd=2.66e+06u as=0p ps=0u
M1027 a_27_297# B1 a_1449_297# VPB phighvt w=1e+06u l=180000u
+  ad=0p pd=0u as=0p ps=0u
M1028 a_119_47# A1 Y VNB nshort w=650000u l=150000u
+  ad=0p pd=0u as=0p ps=0u
M1029 VPWR A2 a_27_297# VPB phighvt w=1e+06u l=180000u
+  ad=0p pd=0u as=0p ps=0u
M1030 Y A1 a_119_47# VNB nshort w=650000u l=150000u
+  ad=0p pd=0u as=0p ps=0u
M1031 a_119_47# A2 VGND VNB nshort w=650000u l=150000u
+  ad=0p pd=0u as=0p ps=0u
.ends


******* EOF

* Copyright 2020 The SkyWater PDK Authors
*
* Licensed under the Apache License, Version 2.0 (the "License");
* you may not use this file except in compliance with the License.
* You may obtain a copy of the License at
*
*     https://www.apache.org/licenses/LICENSE-2.0
*
* Unless required by applicable law or agreed to in writing, software
* distributed under the License is distributed on an "AS IS" BASIS,
* WITHOUT WARRANTIES OR CONDITIONS OF ANY KIND, either express or implied.
* See the License for the specific language governing permissions and
* limitations under the License.
*
* SPDX-License-Identifier: Apache-2.0


.subckt sky130_fd_sc_hdll__a21bo_1 A1 A2 B1_N VGND VNB VPB VPWR X
M1000 a_326_297# A2 VPWR VPB phighvt w=1e+06u l=180000u
+  ad=5.65e+11p pd=5.13e+06u as=6.834e+11p ps=6.52e+06u
M1001 a_412_47# A1 a_235_297# VNB nshort w=650000u l=150000u
+  ad=2.145e+11p pd=1.96e+06u as=1.755e+11p ps=1.84e+06u
M1002 VPWR B1_N a_27_413# VPB phighvt w=420000u l=180000u
+  ad=0p pd=0u as=1.134e+11p ps=1.38e+06u
M1003 a_235_297# a_27_413# VGND VNB nshort w=650000u l=150000u
+  ad=0p pd=0u as=9.0705e+11p ps=5.49e+06u
M1004 VGND B1_N a_27_413# VNB nshort w=420000u l=150000u
+  ad=0p pd=0u as=1.323e+11p ps=1.47e+06u
M1005 X a_235_297# VGND VNB nshort w=650000u l=150000u
+  ad=2.4375e+11p pd=2.05e+06u as=0p ps=0u
M1006 VGND A2 a_412_47# VNB nshort w=650000u l=150000u
+  ad=0p pd=0u as=0p ps=0u
M1007 VPWR A1 a_326_297# VPB phighvt w=1e+06u l=180000u
+  ad=0p pd=0u as=0p ps=0u
M1008 a_326_297# a_27_413# a_235_297# VPB phighvt w=1e+06u l=180000u
+  ad=0p pd=0u as=2.75e+11p ps=2.55e+06u
M1009 X a_235_297# VPWR VPB phighvt w=1e+06u l=180000u
+  ad=3.85e+11p pd=2.77e+06u as=0p ps=0u
.ends


******* EOF

* Copyright 2020 The SkyWater PDK Authors
*
* Licensed under the Apache License, Version 2.0 (the "License");
* you may not use this file except in compliance with the License.
* You may obtain a copy of the License at
*
*     https://www.apache.org/licenses/LICENSE-2.0
*
* Unless required by applicable law or agreed to in writing, software
* distributed under the License is distributed on an "AS IS" BASIS,
* WITHOUT WARRANTIES OR CONDITIONS OF ANY KIND, either express or implied.
* See the License for the specific language governing permissions and
* limitations under the License.
*
* SPDX-License-Identifier: Apache-2.0


.subckt sky130_fd_sc_hdll__a21bo_2 A1 A2 B1_N VGND VNB VPB VPWR X
M1000 a_621_47# A1 a_79_21# VNB nshort w=650000u l=150000u
+  ad=1.755e+11p pd=1.84e+06u as=2.145e+11p ps=1.96e+06u
M1001 VPWR A1 a_523_297# VPB phighvt w=1e+06u l=180000u
+  ad=9.372e+11p pd=8.18e+06u as=5.7e+11p ps=5.14e+06u
M1002 VGND A2 a_621_47# VNB nshort w=650000u l=150000u
+  ad=7.8875e+11p pd=7.68e+06u as=0p ps=0u
M1003 X a_79_21# VPWR VPB phighvt w=1e+06u l=180000u
+  ad=3e+11p pd=2.6e+06u as=0p ps=0u
M1004 VGND a_79_21# X VNB nshort w=650000u l=150000u
+  ad=0p pd=0u as=2.47e+11p ps=2.06e+06u
M1005 a_523_297# a_317_93# a_79_21# VPB phighvt w=1e+06u l=180000u
+  ad=0p pd=0u as=2.7e+11p ps=2.54e+06u
M1006 a_317_93# B1_N VGND VNB nshort w=420000u l=150000u
+  ad=1.302e+11p pd=1.46e+06u as=0p ps=0u
M1007 VPWR a_79_21# X VPB phighvt w=1e+06u l=180000u
+  ad=0p pd=0u as=0p ps=0u
M1008 a_317_93# B1_N VPWR VPB phighvt w=420000u l=180000u
+  ad=1.134e+11p pd=1.38e+06u as=0p ps=0u
M1009 a_523_297# A2 VPWR VPB phighvt w=1e+06u l=180000u
+  ad=0p pd=0u as=0p ps=0u
M1010 X a_79_21# VGND VNB nshort w=650000u l=150000u
+  ad=0p pd=0u as=0p ps=0u
M1011 a_79_21# a_317_93# VGND VNB nshort w=650000u l=150000u
+  ad=0p pd=0u as=0p ps=0u
.ends


******* EOF

* Copyright 2020 The SkyWater PDK Authors
*
* Licensed under the Apache License, Version 2.0 (the "License");
* you may not use this file except in compliance with the License.
* You may obtain a copy of the License at
*
*     https://www.apache.org/licenses/LICENSE-2.0
*
* Unless required by applicable law or agreed to in writing, software
* distributed under the License is distributed on an "AS IS" BASIS,
* WITHOUT WARRANTIES OR CONDITIONS OF ANY KIND, either express or implied.
* See the License for the specific language governing permissions and
* limitations under the License.
*
* SPDX-License-Identifier: Apache-2.0


.subckt sky130_fd_sc_hdll__a21bo_4 A1 A2 B1_N VGND VNB VPB VPWR X
M1000 X a_209_21# VPWR VPB phighvt w=1e+06u l=180000u
+  ad=6e+11p pd=5.2e+06u as=1.47e+12p ps=1.294e+07u
M1001 X a_209_21# VGND VNB nshort w=650000u l=150000u
+  ad=4.29e+11p pd=3.92e+06u as=1.4235e+12p ps=1.088e+07u
M1002 VPWR A2 a_647_297# VPB phighvt w=1e+06u l=180000u
+  ad=0p pd=0u as=1.12e+12p ps=1.024e+07u
M1003 VPWR B1_N a_36_47# VPB phighvt w=1e+06u l=180000u
+  ad=0p pd=0u as=2.75e+11p ps=2.55e+06u
M1004 VGND a_209_21# X VNB nshort w=650000u l=150000u
+  ad=0p pd=0u as=0p ps=0u
M1005 a_647_297# a_36_47# a_209_21# VPB phighvt w=1e+06u l=180000u
+  ad=0p pd=0u as=2.9e+11p ps=2.58e+06u
M1006 VPWR a_209_21# X VPB phighvt w=1e+06u l=180000u
+  ad=0p pd=0u as=0p ps=0u
M1007 X a_209_21# VGND VNB nshort w=650000u l=150000u
+  ad=0p pd=0u as=0p ps=0u
M1008 a_647_297# A2 VPWR VPB phighvt w=1e+06u l=180000u
+  ad=0p pd=0u as=0p ps=0u
M1009 VGND a_209_21# X VNB nshort w=650000u l=150000u
+  ad=0p pd=0u as=0p ps=0u
M1010 VGND a_36_47# a_209_21# VNB nshort w=650000u l=150000u
+  ad=0p pd=0u as=4.485e+11p ps=3.98e+06u
M1011 a_1115_47# A1 a_209_21# VNB nshort w=650000u l=150000u
+  ad=1.755e+11p pd=1.84e+06u as=0p ps=0u
M1012 VPWR a_209_21# X VPB phighvt w=1e+06u l=180000u
+  ad=0p pd=0u as=0p ps=0u
M1013 VGND B1_N a_36_47# VNB nshort w=650000u l=150000u
+  ad=0p pd=0u as=2.8275e+11p ps=2.17e+06u
M1014 VPWR A1 a_647_297# VPB phighvt w=1e+06u l=180000u
+  ad=0p pd=0u as=0p ps=0u
M1015 VGND A2 a_1115_47# VNB nshort w=650000u l=150000u
+  ad=0p pd=0u as=0p ps=0u
M1016 a_209_21# a_36_47# VGND VNB nshort w=650000u l=150000u
+  ad=0p pd=0u as=0p ps=0u
M1017 a_935_47# A2 VGND VNB nshort w=650000u l=150000u
+  ad=1.495e+11p pd=1.76e+06u as=0p ps=0u
M1018 X a_209_21# VPWR VPB phighvt w=1e+06u l=180000u
+  ad=0p pd=0u as=0p ps=0u
M1019 a_209_21# a_36_47# a_647_297# VPB phighvt w=1e+06u l=180000u
+  ad=0p pd=0u as=0p ps=0u
M1020 a_647_297# A1 VPWR VPB phighvt w=1e+06u l=180000u
+  ad=0p pd=0u as=0p ps=0u
M1021 a_209_21# A1 a_935_47# VNB nshort w=650000u l=150000u
+  ad=0p pd=0u as=0p ps=0u
.ends


******* EOF

* Copyright 2020 The SkyWater PDK Authors
*
* Licensed under the Apache License, Version 2.0 (the "License");
* you may not use this file except in compliance with the License.
* You may obtain a copy of the License at
*
*     https://www.apache.org/licenses/LICENSE-2.0
*
* Unless required by applicable law or agreed to in writing, software
* distributed under the License is distributed on an "AS IS" BASIS,
* WITHOUT WARRANTIES OR CONDITIONS OF ANY KIND, either express or implied.
* See the License for the specific language governing permissions and
* limitations under the License.
*
* SPDX-License-Identifier: Apache-2.0


.subckt sky130_fd_sc_hdll__a21boi_1 A1 A2 B1_N VGND VNB VPB VPWR Y
M1000 VPWR B1_N a_27_413# VPB phighvt w=420000u l=180000u
+  ad=5.355e+11p pd=4.23e+06u as=1.155e+11p ps=1.39e+06u
M1001 VPWR A1 a_338_297# VPB phighvt w=1e+06u l=180000u
+  ad=0p pd=0u as=5.75e+11p ps=5.15e+06u
M1002 VGND B1_N a_27_413# VNB nshort w=420000u l=150000u
+  ad=4.345e+11p pd=3.99e+06u as=1.533e+11p ps=1.57e+06u
M1003 a_434_47# A1 Y VNB nshort w=650000u l=150000u
+  ad=2.665e+11p pd=2.12e+06u as=3.51e+11p ps=2.38e+06u
M1004 VGND A2 a_434_47# VNB nshort w=650000u l=150000u
+  ad=0p pd=0u as=0p ps=0u
M1005 Y a_27_413# VGND VNB nshort w=650000u l=150000u
+  ad=0p pd=0u as=0p ps=0u
M1006 a_338_297# A2 VPWR VPB phighvt w=1e+06u l=180000u
+  ad=0p pd=0u as=0p ps=0u
M1007 a_338_297# a_27_413# Y VPB phighvt w=1e+06u l=180000u
+  ad=0p pd=0u as=3.25e+11p ps=2.65e+06u
.ends


******* EOF

* Copyright 2020 The SkyWater PDK Authors
*
* Licensed under the Apache License, Version 2.0 (the "License");
* you may not use this file except in compliance with the License.
* You may obtain a copy of the License at
*
*     https://www.apache.org/licenses/LICENSE-2.0
*
* Unless required by applicable law or agreed to in writing, software
* distributed under the License is distributed on an "AS IS" BASIS,
* WITHOUT WARRANTIES OR CONDITIONS OF ANY KIND, either express or implied.
* See the License for the specific language governing permissions and
* limitations under the License.
*
* SPDX-License-Identifier: Apache-2.0


.subckt sky130_fd_sc_hdll__a21boi_2 A1 A2 B1_N VGND VNB VPB VPWR Y
M1000 a_228_297# A1 VPWR VPB phighvt w=1e+06u l=180000u
+  ad=1.2e+12p pd=1.04e+07u as=7.055e+11p ps=6.57e+06u
M1001 VPWR A2 a_228_297# VPB phighvt w=1e+06u l=180000u
+  ad=0p pd=0u as=0p ps=0u
M1002 a_228_297# A2 VPWR VPB phighvt w=1e+06u l=180000u
+  ad=0p pd=0u as=0p ps=0u
M1003 a_228_297# a_61_47# Y VPB phighvt w=1e+06u l=180000u
+  ad=0p pd=0u as=2.9e+11p ps=2.58e+06u
M1004 Y A1 a_529_47# VNB nshort w=650000u l=150000u
+  ad=4.225e+11p pd=3.9e+06u as=1.365e+11p ps=1.72e+06u
M1005 Y a_61_47# a_228_297# VPB phighvt w=1e+06u l=180000u
+  ad=0p pd=0u as=0p ps=0u
M1006 VGND a_61_47# Y VNB nshort w=650000u l=150000u
+  ad=8.845e+11p pd=6.71e+06u as=0p ps=0u
M1007 a_61_47# B1_N VPWR VPB phighvt w=420000u l=180000u
+  ad=1.155e+11p pd=1.39e+06u as=0p ps=0u
M1008 VPWR A1 a_228_297# VPB phighvt w=1e+06u l=180000u
+  ad=0p pd=0u as=0p ps=0u
M1009 a_529_47# A2 VGND VNB nshort w=650000u l=150000u
+  ad=0p pd=0u as=0p ps=0u
M1010 VGND B1_N a_61_47# VNB nshort w=420000u l=150000u
+  ad=0p pd=0u as=1.47e+11p ps=1.54e+06u
M1011 a_697_47# A1 Y VNB nshort w=650000u l=150000u
+  ad=2.145e+11p pd=1.96e+06u as=0p ps=0u
M1012 Y a_61_47# VGND VNB nshort w=650000u l=150000u
+  ad=0p pd=0u as=0p ps=0u
M1013 VGND A2 a_697_47# VNB nshort w=650000u l=150000u
+  ad=0p pd=0u as=0p ps=0u
.ends


******* EOF

* Copyright 2020 The SkyWater PDK Authors
*
* Licensed under the Apache License, Version 2.0 (the "License");
* you may not use this file except in compliance with the License.
* You may obtain a copy of the License at
*
*     https://www.apache.org/licenses/LICENSE-2.0
*
* Unless required by applicable law or agreed to in writing, software
* distributed under the License is distributed on an "AS IS" BASIS,
* WITHOUT WARRANTIES OR CONDITIONS OF ANY KIND, either express or implied.
* See the License for the specific language governing permissions and
* limitations under the License.
*
* SPDX-License-Identifier: Apache-2.0


.subckt sky130_fd_sc_hdll__a21boi_4 A1 A2 B1_N VGND VNB VPB VPWR Y
M1000 a_724_47# A2 VGND VNB nshort w=650000u l=150000u
+  ad=7.8e+11p pd=7.6e+06u as=1.365e+12p ps=1.07e+07u
M1001 a_724_47# A2 VGND VNB nshort w=650000u l=150000u
+  ad=0p pd=0u as=0p ps=0u
M1002 VGND a_27_47# Y VNB nshort w=650000u l=150000u
+  ad=0p pd=0u as=8.905e+11p ps=7.94e+06u
M1003 VPWR A2 a_227_297# VPB phighvt w=1e+06u l=180000u
+  ad=1.465e+12p pd=1.293e+07u as=2.125e+12p ps=1.825e+07u
M1004 VGND A2 a_724_47# VNB nshort w=650000u l=150000u
+  ad=0p pd=0u as=0p ps=0u
M1005 a_227_297# a_27_47# Y VPB phighvt w=1e+06u l=180000u
+  ad=0p pd=0u as=6e+11p ps=5.2e+06u
M1006 a_227_297# A2 VPWR VPB phighvt w=1e+06u l=180000u
+  ad=0p pd=0u as=0p ps=0u
M1007 Y A1 a_724_47# VNB nshort w=650000u l=150000u
+  ad=0p pd=0u as=0p ps=0u
M1008 a_227_297# a_27_47# Y VPB phighvt w=1e+06u l=180000u
+  ad=0p pd=0u as=0p ps=0u
M1009 a_724_47# A1 Y VNB nshort w=650000u l=150000u
+  ad=0p pd=0u as=0p ps=0u
M1010 VPWR B1_N a_27_47# VPB phighvt w=1e+06u l=180000u
+  ad=0p pd=0u as=2.75e+11p ps=2.55e+06u
M1011 VPWR A2 a_227_297# VPB phighvt w=1e+06u l=180000u
+  ad=0p pd=0u as=0p ps=0u
M1012 VGND A2 a_724_47# VNB nshort w=650000u l=150000u
+  ad=0p pd=0u as=0p ps=0u
M1013 a_724_47# A1 Y VNB nshort w=650000u l=150000u
+  ad=0p pd=0u as=0p ps=0u
M1014 VPWR A1 a_227_297# VPB phighvt w=1e+06u l=180000u
+  ad=0p pd=0u as=0p ps=0u
M1015 VGND B1_N a_27_47# VNB nshort w=650000u l=150000u
+  ad=0p pd=0u as=3.0225e+11p ps=2.23e+06u
M1016 Y a_27_47# a_227_297# VPB phighvt w=1e+06u l=180000u
+  ad=0p pd=0u as=0p ps=0u
M1017 VPWR A1 a_227_297# VPB phighvt w=1e+06u l=180000u
+  ad=0p pd=0u as=0p ps=0u
M1018 Y a_27_47# VGND VNB nshort w=650000u l=150000u
+  ad=0p pd=0u as=0p ps=0u
M1019 VGND a_27_47# Y VNB nshort w=650000u l=150000u
+  ad=0p pd=0u as=0p ps=0u
M1020 Y A1 a_724_47# VNB nshort w=650000u l=150000u
+  ad=0p pd=0u as=0p ps=0u
M1021 a_227_297# A1 VPWR VPB phighvt w=1e+06u l=180000u
+  ad=0p pd=0u as=0p ps=0u
M1022 Y a_27_47# a_227_297# VPB phighvt w=1e+06u l=180000u
+  ad=0p pd=0u as=0p ps=0u
M1023 a_227_297# A2 VPWR VPB phighvt w=1e+06u l=180000u
+  ad=0p pd=0u as=0p ps=0u
M1024 a_227_297# A1 VPWR VPB phighvt w=1e+06u l=180000u
+  ad=0p pd=0u as=0p ps=0u
M1025 Y a_27_47# VGND VNB nshort w=650000u l=150000u
+  ad=0p pd=0u as=0p ps=0u
.ends


******* EOF

* Copyright 2020 The SkyWater PDK Authors
*
* Licensed under the Apache License, Version 2.0 (the "License");
* you may not use this file except in compliance with the License.
* You may obtain a copy of the License at
*
*     https://www.apache.org/licenses/LICENSE-2.0
*
* Unless required by applicable law or agreed to in writing, software
* distributed under the License is distributed on an "AS IS" BASIS,
* WITHOUT WARRANTIES OR CONDITIONS OF ANY KIND, either express or implied.
* See the License for the specific language governing permissions and
* limitations under the License.
*
* SPDX-License-Identifier: Apache-2.0


.subckt sky130_fd_sc_hdll__a21o_1 A1 A2 B1 VGND VNB VPB VPWR X
M1000 VGND a_81_21# X VNB nshort w=650000u l=150000u
+  ad=7.8325e+11p pd=5.01e+06u as=1.69e+11p ps=1.82e+06u
M1001 a_81_21# B1 VGND VNB nshort w=650000u l=150000u
+  ad=2.1775e+11p pd=1.97e+06u as=0p ps=0u
M1002 VPWR A1 a_317_297# VPB phighvt w=1e+06u l=180000u
+  ad=5.7e+11p pd=5.14e+06u as=5.8e+11p ps=5.16e+06u
M1003 VPWR a_81_21# X VPB phighvt w=1e+06u l=180000u
+  ad=0p pd=0u as=2.7e+11p ps=2.54e+06u
M1004 VGND A2 a_416_47# VNB nshort w=650000u l=150000u
+  ad=0p pd=0u as=1.82e+11p ps=1.86e+06u
M1005 a_317_297# B1 a_81_21# VPB phighvt w=1e+06u l=180000u
+  ad=0p pd=0u as=2.7e+11p ps=2.54e+06u
M1006 a_317_297# A2 VPWR VPB phighvt w=1e+06u l=180000u
+  ad=0p pd=0u as=0p ps=0u
M1007 a_416_47# A1 a_81_21# VNB nshort w=650000u l=150000u
+  ad=0p pd=0u as=0p ps=0u
.ends


******* EOF

* Copyright 2020 The SkyWater PDK Authors
*
* Licensed under the Apache License, Version 2.0 (the "License");
* you may not use this file except in compliance with the License.
* You may obtain a copy of the License at
*
*     https://www.apache.org/licenses/LICENSE-2.0
*
* Unless required by applicable law or agreed to in writing, software
* distributed under the License is distributed on an "AS IS" BASIS,
* WITHOUT WARRANTIES OR CONDITIONS OF ANY KIND, either express or implied.
* See the License for the specific language governing permissions and
* limitations under the License.
*
* SPDX-License-Identifier: Apache-2.0


.subckt sky130_fd_sc_hdll__a21o_2 A1 A2 B1 VGND VNB VPB VPWR X
M1000 a_444_297# A2 VPWR VPB phighvt w=1e+06u l=180000u
+  ad=5.7e+11p pd=5.14e+06u as=9.35e+11p ps=7.87e+06u
M1001 VPWR A1 a_444_297# VPB phighvt w=1e+06u l=180000u
+  ad=0p pd=0u as=0p ps=0u
M1002 X a_80_21# VPWR VPB phighvt w=1e+06u l=180000u
+  ad=3.5e+11p pd=2.7e+06u as=0p ps=0u
M1003 X a_80_21# VGND VNB nshort w=650000u l=150000u
+  ad=2.795e+11p pd=2.16e+06u as=8.5475e+11p ps=6.53e+06u
M1004 a_444_297# B1 a_80_21# VPB phighvt w=1e+06u l=180000u
+  ad=0p pd=0u as=3.25e+11p ps=2.65e+06u
M1005 VPWR a_80_21# X VPB phighvt w=1e+06u l=180000u
+  ad=0p pd=0u as=0p ps=0u
M1006 a_80_21# B1 VGND VNB nshort w=650000u l=150000u
+  ad=3.185e+11p pd=2.28e+06u as=0p ps=0u
M1007 VGND a_80_21# X VNB nshort w=650000u l=150000u
+  ad=0p pd=0u as=0p ps=0u
M1008 a_532_47# A1 a_80_21# VNB nshort w=650000u l=150000u
+  ad=2.3725e+11p pd=2.03e+06u as=0p ps=0u
M1009 VGND A2 a_532_47# VNB nshort w=650000u l=150000u
+  ad=0p pd=0u as=0p ps=0u
.ends


******* EOF

* Copyright 2020 The SkyWater PDK Authors
*
* Licensed under the Apache License, Version 2.0 (the "License");
* you may not use this file except in compliance with the License.
* You may obtain a copy of the License at
*
*     https://www.apache.org/licenses/LICENSE-2.0
*
* Unless required by applicable law or agreed to in writing, software
* distributed under the License is distributed on an "AS IS" BASIS,
* WITHOUT WARRANTIES OR CONDITIONS OF ANY KIND, either express or implied.
* See the License for the specific language governing permissions and
* limitations under the License.
*
* SPDX-License-Identifier: Apache-2.0


.subckt sky130_fd_sc_hdll__a21o_4 A1 A2 B1 VGND VNB VPB VPWR X