* Copyright 2020 The SkyWater PDK Authors
*
* Licensed under the Apache License, Version 2.0 (the "License");
* you may not use this file except in compliance with the License.
* You may obtain a copy of the License at
*
*     https://www.apache.org/licenses/LICENSE-2.0
*
* Unless required by applicable law or agreed to in writing, software
* distributed under the License is distributed on an "AS IS" BASIS,
* WITHOUT WARRANTIES OR CONDITIONS OF ANY KIND, either express or implied.
* See the License for the specific language governing permissions and
* limitations under the License.
*
* SPDX-License-Identifier: Apache-2.0


.subckt sky130_fd_sc_hd__a2111o_1 A1 A2 B1 C1 D1 VGND VNB VPB VPWR X
M1000 VPWR a_85_193# X VPB phighvt w=1e+06u l=150000u
+  ad=5.35e+11p pd=5.07e+06u as=2.9e+11p ps=2.58e+06u
M1001 VGND a_85_193# X VNB nshort w=650000u l=150000u
+  ad=9.7175e+11p pd=6.89e+06u as=2.145e+11p ps=1.96e+06u
M1002 a_414_297# C1 a_334_297# VPB phighvt w=1e+06u l=150000u
+  ad=3.6e+11p pd=2.72e+06u as=2.5e+11p ps=2.5e+06u
M1003 a_516_297# B1 a_414_297# VPB phighvt w=1e+06u l=150000u
+  ad=8.5e+11p pd=5.7e+06u as=0p ps=0u
M1004 VGND C1 a_85_193# VNB nshort w=650000u l=150000u
+  ad=0p pd=0u as=5.72e+11p ps=4.36e+06u
M1005 a_516_297# A2 VPWR VPB phighvt w=1e+06u l=150000u
+  ad=0p pd=0u as=0p ps=0u
M1006 a_334_297# D1 a_85_193# VPB phighvt w=1e+06u l=150000u
+  ad=0p pd=0u as=3.85e+11p ps=2.77e+06u
M1007 a_660_47# A1 a_85_193# VNB nshort w=650000u l=150000u
+  ad=1.6575e+11p pd=1.81e+06u as=0p ps=0u
M1008 VGND A2 a_660_47# VNB nshort w=650000u l=150000u
+  ad=0p pd=0u as=0p ps=0u
M1009 a_85_193# B1 VGND VNB nshort w=650000u l=150000u
+  ad=0p pd=0u as=0p ps=0u
M1010 VPWR A1 a_516_297# VPB phighvt w=1e+06u l=150000u
+  ad=0p pd=0u as=0p ps=0u
M1011 a_85_193# D1 VGND VNB nshort w=650000u l=150000u
+  ad=0p pd=0u as=0p ps=0u
.ends


******* EOF

* Copyright 2020 The SkyWater PDK Authors
*
* Licensed under the Apache License, Version 2.0 (the "License");
* you may not use this file except in compliance with the License.
* You may obtain a copy of the License at
*
*     https://www.apache.org/licenses/LICENSE-2.0
*
* Unless required by applicable law or agreed to in writing, software
* distributed under the License is distributed on an "AS IS" BASIS,
* WITHOUT WARRANTIES OR CONDITIONS OF ANY KIND, either express or implied.
* See the License for the specific language governing permissions and
* limitations under the License.
*
* SPDX-License-Identifier: Apache-2.0


.subckt sky130_fd_sc_hd__a2111o_2 A1 A2 B1 C1 D1 VGND VNB VPB VPWR X
M1000 VPWR A1 a_607_297# VPB phighvt w=1e+06u l=150000u
+  ad=9.2e+11p pd=7.84e+06u as=6.55e+11p ps=5.31e+06u
M1001 a_86_235# B1 VGND VNB nshort w=650000u l=150000u
+  ad=3.9975e+11p pd=3.83e+06u as=1.23175e+12p ps=8.99e+06u
M1002 a_427_297# D1 a_86_235# VPB phighvt w=1e+06u l=150000u
+  ad=2.1e+11p pd=2.42e+06u as=4.1e+11p ps=2.82e+06u
M1003 VGND A2 a_715_47# VNB nshort w=650000u l=150000u
+  ad=0p pd=0u as=2.535e+11p ps=2.08e+06u
M1004 X a_86_235# VGND VNB nshort w=650000u l=150000u
+  ad=1.82e+11p pd=1.86e+06u as=0p ps=0u
M1005 VPWR a_86_235# X VPB phighvt w=1e+06u l=150000u
+  ad=0p pd=0u as=2.8e+11p ps=2.56e+06u
M1006 a_499_297# C1 a_427_297# VPB phighvt w=1e+06u l=150000u
+  ad=3.9e+11p pd=2.78e+06u as=0p ps=0u
M1007 a_607_297# A2 VPWR VPB phighvt w=1e+06u l=150000u
+  ad=0p pd=0u as=0p ps=0u
M1008 a_86_235# D1 VGND VNB nshort w=650000u l=150000u
+  ad=0p pd=0u as=0p ps=0u
M1009 VGND a_86_235# X VNB nshort w=650000u l=150000u
+  ad=0p pd=0u as=0p ps=0u
M1010 a_607_297# B1 a_499_297# VPB phighvt w=1e+06u l=150000u
+  ad=0p pd=0u as=0p ps=0u
M1011 VGND C1 a_86_235# VNB nshort w=650000u l=150000u
+  ad=0p pd=0u as=0p ps=0u
M1012 X a_86_235# VPWR VPB phighvt w=1e+06u l=150000u
+  ad=0p pd=0u as=0p ps=0u
M1013 a_715_47# A1 a_86_235# VNB nshort w=650000u l=150000u
+  ad=0p pd=0u as=0p ps=0u
.ends


******* EOF

* Copyright 2020 The SkyWater PDK Authors
*
* Licensed under the Apache License, Version 2.0 (the "License");
* you may not use this file except in compliance with the License.
* You may obtain a copy of the License at
*
*     https://www.apache.org/licenses/LICENSE-2.0
*
* Unless required by applicable law or agreed to in writing, software
* distributed under the License is distributed on an "AS IS" BASIS,
* WITHOUT WARRANTIES OR CONDITIONS OF ANY KIND, either express or implied.
* See the License for the specific language governing permissions and
* limitations under the License.
*
* SPDX-License-Identifier: Apache-2.0


.subckt sky130_fd_sc_hd__a2111o_4 A1 A2 B1 C1 D1 VGND VNB VPB VPWR X
M1000 VGND D1 a_44_47# VNB nshort w=650000u l=150000u
+  ad=1.638e+12p pd=1.414e+07u as=9.3925e+11p ps=9.39e+06u
M1001 a_44_47# D1 VGND VNB nshort w=650000u l=150000u
+  ad=0p pd=0u as=0p ps=0u
M1002 VPWR A1 a_477_297# VPB phighvt w=1e+06u l=150000u
+  ad=1.365e+12p pd=1.273e+07u as=1.315e+12p ps=1.063e+07u
M1003 a_477_297# A2 VPWR VPB phighvt w=1e+06u l=150000u
+  ad=0p pd=0u as=0p ps=0u
M1004 a_477_297# B1 a_285_297# VPB phighvt w=1e+06u l=150000u
+  ad=0p pd=0u as=5.6e+11p ps=5.12e+06u
M1005 a_44_47# D1 a_30_297# VPB phighvt w=1e+06u l=150000u
+  ad=2.8e+11p pd=2.56e+06u as=8.05e+11p ps=7.61e+06u
M1006 a_285_297# C1 a_30_297# VPB phighvt w=1e+06u l=150000u
+  ad=0p pd=0u as=0p ps=0u
M1007 X a_44_47# VPWR VPB phighvt w=1e+06u l=150000u
+  ad=5.6e+11p pd=5.12e+06u as=0p ps=0u
M1008 a_44_47# B1 VGND VNB nshort w=650000u l=150000u
+  ad=0p pd=0u as=0p ps=0u
M1009 X a_44_47# VGND VNB nshort w=650000u l=150000u
+  ad=3.64e+11p pd=3.72e+06u as=0p ps=0u
M1010 a_770_47# A1 a_44_47# VNB nshort w=650000u l=150000u
+  ad=3.64e+11p pd=3.72e+06u as=0p ps=0u
M1011 VGND A2 a_770_47# VNB nshort w=650000u l=150000u
+  ad=0p pd=0u as=0p ps=0u
M1012 X a_44_47# VGND VNB nshort w=650000u l=150000u
+  ad=0p pd=0u as=0p ps=0u
M1013 VPWR a_44_47# X VPB phighvt w=1e+06u l=150000u
+  ad=0p pd=0u as=0p ps=0u
M1014 a_285_297# B1 a_477_297# VPB phighvt w=1e+06u l=150000u
+  ad=0p pd=0u as=0p ps=0u
M1015 VGND C1 a_44_47# VNB nshort w=650000u l=150000u
+  ad=0p pd=0u as=0p ps=0u
M1016 a_44_47# C1 VGND VNB nshort w=650000u l=150000u
+  ad=0p pd=0u as=0p ps=0u
M1017 a_477_297# A1 VPWR VPB phighvt w=1e+06u l=150000u
+  ad=0p pd=0u as=0p ps=0u
M1018 a_30_297# D1 a_44_47# VPB phighvt w=1e+06u l=150000u
+  ad=0p pd=0u as=0p ps=0u
M1019 VGND B1 a_44_47# VNB nshort w=650000u l=150000u
+  ad=0p pd=0u as=0p ps=0u
M1020 VGND a_44_47# X VNB nshort w=650000u l=150000u
+  ad=0p pd=0u as=0p ps=0u
M1021 VGND a_44_47# X VNB nshort w=650000u l=150000u
+  ad=0p pd=0u as=0p ps=0u
M1022 a_770_47# A2 VGND VNB nshort w=650000u l=150000u
+  ad=0p pd=0u as=0p ps=0u
M1023 VPWR A2 a_477_297# VPB phighvt w=1e+06u l=150000u
+  ad=0p pd=0u as=0p ps=0u
M1024 a_30_297# C1 a_285_297# VPB phighvt w=1e+06u l=150000u
+  ad=0p pd=0u as=0p ps=0u
M1025 VPWR a_44_47# X VPB phighvt w=1e+06u l=150000u
+  ad=0p pd=0u as=0p ps=0u
M1026 a_44_47# A1 a_770_47# VNB nshort w=650000u l=150000u
+  ad=0p pd=0u as=0p ps=0u
M1027 X a_44_47# VPWR VPB phighvt w=1e+06u l=150000u
+  ad=0p pd=0u as=0p ps=0u
.ends


******* EOF

* Copyright 2020 The SkyWater PDK Authors
*
* Licensed under the Apache License, Version 2.0 (the "License");
* you may not use this file except in compliance with the License.
* You may obtain a copy of the License at
*
*     https://www.apache.org/licenses/LICENSE-2.0
*
* Unless required by applicable law or agreed to in writing, software
* distributed under the License is distributed on an "AS IS" BASIS,
* WITHOUT WARRANTIES OR CONDITIONS OF ANY KIND, either express or implied.
* See the License for the specific language governing permissions and
* limitations under the License.
*
* SPDX-License-Identifier: Apache-2.0


.subckt sky130_fd_sc_hd__a2111oi_0 A1 A2 B1 C1 D1 VGND VNB VPB VPWR Y
M1000 Y B1 VGND VNB nshort w=420000u l=150000u
+  ad=2.352e+11p pd=2.8e+06u as=3.927e+11p ps=4.39e+06u
M1001 a_313_369# B1 a_241_369# VPB phighvt w=640000u l=150000u
+  ad=3.744e+11p pd=3.73e+06u as=1.344e+11p ps=1.7e+06u
M1002 VGND C1 Y VNB nshort w=420000u l=150000u
+  ad=0p pd=0u as=0p ps=0u
M1003 a_427_47# A1 Y VNB nshort w=420000u l=150000u
+  ad=8.82e+10p pd=1.26e+06u as=0p ps=0u
M1004 VGND A2 a_427_47# VNB nshort w=420000u l=150000u
+  ad=0p pd=0u as=0p ps=0u
M1005 a_313_369# A2 VPWR VPB phighvt w=640000u l=150000u
+  ad=0p pd=0u as=2.432e+11p ps=2.04e+06u
M1006 a_241_369# C1 a_169_369# VPB phighvt w=640000u l=150000u
+  ad=0p pd=0u as=1.344e+11p ps=1.7e+06u
M1007 a_169_369# D1 Y VPB phighvt w=640000u l=150000u
+  ad=0p pd=0u as=1.888e+11p ps=1.87e+06u
M1008 Y D1 VGND VNB nshort w=420000u l=150000u
+  ad=0p pd=0u as=0p ps=0u
M1009 VPWR A1 a_313_369# VPB phighvt w=640000u l=150000u
+  ad=0p pd=0u as=0p ps=0u
.ends


******* EOF

* Copyright 2020 The SkyWater PDK Authors
*
* Licensed under the Apache License, Version 2.0 (the "License");
* you may not use this file except in compliance with the License.
* You may obtain a copy of the License at
*
*     https://www.apache.org/licenses/LICENSE-2.0
*
* Unless required by applicable law or agreed to in writing, software
* distributed under the License is distributed on an "AS IS" BASIS,
* WITHOUT WARRANTIES OR CONDITIONS OF ANY KIND, either express or implied.
* See the License for the specific language governing permissions and
* limitations under the License.
*
* SPDX-License-Identifier: Apache-2.0


.subckt sky130_fd_sc_hd__a2111oi_1 A1 A2 B1 C1 D1 VGND VNB VPB VPWR Y
M1000 VGND C1 Y VNB nshort w=650000u l=150000u
+  ad=9.1325e+11p pd=6.71e+06u as=6.3375e+11p ps=4.55e+06u
M1001 a_316_297# C1 a_217_297# VPB phighvt w=1e+06u l=150000u
+  ad=3.7e+11p pd=2.74e+06u as=3.45e+11p ps=2.69e+06u
M1002 a_568_47# A1 Y VNB nshort w=650000u l=150000u
+  ad=1.69e+11p pd=1.82e+06u as=0p ps=0u
M1003 Y D1 VGND VNB nshort w=650000u l=150000u
+  ad=0p pd=0u as=0p ps=0u
M1004 Y B1 VGND VNB nshort w=650000u l=150000u
+  ad=0p pd=0u as=0p ps=0u
M1005 a_420_297# A2 VPWR VPB phighvt w=1e+06u l=150000u
+  ad=8.7e+11p pd=5.74e+06u as=2.75e+11p ps=2.55e+06u
M1006 a_217_297# D1 Y VPB phighvt w=1e+06u l=150000u
+  ad=0p pd=0u as=7.55e+11p ps=3.51e+06u
M1007 VPWR A1 a_420_297# VPB phighvt w=1e+06u l=150000u
+  ad=0p pd=0u as=0p ps=0u
M1008 a_420_297# B1 a_316_297# VPB phighvt w=1e+06u l=150000u
+  ad=0p pd=0u as=0p ps=0u
M1009 VGND A2 a_568_47# VNB nshort w=650000u l=150000u
+  ad=0p pd=0u as=0p ps=0u
.ends


******* EOF

* Copyright 2020 The SkyWater PDK Authors
*
* Licensed under the Apache License, Version 2.0 (the "License");
* you may not use this file except in compliance with the License.
* You may obtain a copy of the License at
*
*     https://www.apache.org/licenses/LICENSE-2.0
*
* Unless required by applicable law or agreed to in writing, software
* distributed under the License is distributed on an "AS IS" BASIS,
* WITHOUT WARRANTIES OR CONDITIONS OF ANY KIND, either express or implied.
* See the License for the specific language governing permissions and
* limitations under the License.
*
* SPDX-License-Identifier: Apache-2.0


.subckt sky130_fd_sc_hd__a2111oi_2 A1 A2 B1 C1 D1 VGND VNB VPB VPWR Y
M1000 a_684_47# A1 Y VNB nshort w=650000u l=150000u
+  ad=3.575e+11p pd=2.4e+06u as=9.3275e+11p ps=9.37e+06u
M1001 a_115_297# C1 a_28_297# VPB phighvt w=1e+06u l=150000u
+  ad=2.8e+11p pd=2.56e+06u as=8.65e+11p ps=7.73e+06u
M1002 a_287_297# D1 Y VPB phighvt w=1e+06u l=150000u
+  ad=2.8e+11p pd=2.56e+06u as=2.8e+11p ps=2.56e+06u
M1003 VGND B1 Y VNB nshort w=650000u l=150000u
+  ad=9.1325e+11p pd=8.01e+06u as=0p ps=0u
M1004 a_923_47# A2 VGND VNB nshort w=650000u l=150000u
+  ad=1.82e+11p pd=1.86e+06u as=0p ps=0u
M1005 a_28_297# B1 a_467_297# VPB phighvt w=1e+06u l=150000u
+  ad=0p pd=0u as=1.155e+12p ps=1.031e+07u
M1006 a_467_297# A1 VPWR VPB phighvt w=1e+06u l=150000u
+  ad=0p pd=0u as=6e+11p ps=5.2e+06u
M1007 Y D1 a_115_297# VPB phighvt w=1e+06u l=150000u
+  ad=0p pd=0u as=0p ps=0u
M1008 VPWR A2 a_467_297# VPB phighvt w=1e+06u l=150000u
+  ad=0p pd=0u as=0p ps=0u
M1009 VGND D1 Y VNB nshort w=650000u l=150000u
+  ad=0p pd=0u as=0p ps=0u
M1010 a_467_297# B1 a_28_297# VPB phighvt w=1e+06u l=150000u
+  ad=0p pd=0u as=0p ps=0u
M1011 VPWR A1 a_467_297# VPB phighvt w=1e+06u l=150000u
+  ad=0p pd=0u as=0p ps=0u
M1012 Y B1 VGND VNB nshort w=650000u l=150000u
+  ad=0p pd=0u as=0p ps=0u
M1013 a_28_297# C1 a_287_297# VPB phighvt w=1e+06u l=150000u
+  ad=0p pd=0u as=0p ps=0u
M1014 Y C1 VGND VNB nshort w=650000u l=150000u
+  ad=0p pd=0u as=0p ps=0u
M1015 Y A1 a_923_47# VNB nshort w=650000u l=150000u
+  ad=0p pd=0u as=0p ps=0u
M1016 a_467_297# A2 VPWR VPB phighvt w=1e+06u l=150000u
+  ad=0p pd=0u as=0p ps=0u
M1017 Y D1 VGND VNB nshort w=650000u l=150000u
+  ad=0p pd=0u as=0p ps=0u
M1018 VGND C1 Y VNB nshort w=650000u l=150000u
+  ad=0p pd=0u as=0p ps=0u
M1019 VGND A2 a_684_47# VNB nshort w=650000u l=150000u
+  ad=0p pd=0u as=0p ps=0u
.ends


******* EOF

* Copyright 2020 The SkyWater PDK Authors
*
* Licensed under the Apache License, Version 2.0 (the "License");
* you may not use this file except in compliance with the License.
* You may obtain a copy of the License at
*
*     https://www.apache.org/licenses/LICENSE-2.0
*
* Unless required by applicable law or agreed to in writing, software
* distributed under the License is distributed on an "AS IS" BASIS,
* WITHOUT WARRANTIES OR CONDITIONS OF ANY KIND, either express or implied.
* See the License for the specific language governing permissions and
* limitations under the License.
*
* SPDX-License-Identifier: Apache-2.0


.subckt sky130_fd_sc_hd__a2111oi_4 A1 A2 B1 C1 D1 VGND VNB VPB VPWR Y
M1000 VPWR A2 a_821_297# VPB phighvt w=1e+06u l=150000u
+  ad=1.14e+12p pd=1.028e+07u as=2.145e+12p ps=1.829e+07u
M1001 Y B1 VGND VNB nshort w=650000u l=150000u
+  ad=1.4495e+12p pd=1.486e+07u as=1.7615e+12p ps=1.712e+07u
M1002 VGND B1 Y VNB nshort w=650000u l=150000u
+  ad=0p pd=0u as=0p ps=0u
M1003 a_28_297# D1 Y VPB phighvt w=1e+06u l=150000u
+  ad=1.365e+12p pd=1.273e+07u as=5.6e+11p ps=5.12e+06u
M1004 a_821_297# A2 VPWR VPB phighvt w=1e+06u l=150000u
+  ad=0p pd=0u as=0p ps=0u
M1005 a_28_297# C1 a_455_297# VPB phighvt w=1e+06u l=150000u
+  ad=0p pd=0u as=1.12e+12p ps=1.024e+07u
M1006 VGND A2 a_1205_47# VNB nshort w=650000u l=150000u
+  ad=0p pd=0u as=9.62e+11p ps=9.46e+06u
M1007 VGND D1 Y VNB nshort w=650000u l=150000u
+  ad=0p pd=0u as=0p ps=0u
M1008 Y C1 VGND VNB nshort w=650000u l=150000u
+  ad=0p pd=0u as=0p ps=0u
M1009 VGND D1 Y VNB nshort w=650000u l=150000u
+  ad=0p pd=0u as=0p ps=0u
M1010 Y C1 VGND VNB nshort w=650000u l=150000u
+  ad=0p pd=0u as=0p ps=0u
M1011 a_28_297# C1 a_455_297# VPB phighvt w=1e+06u l=150000u
+  ad=0p pd=0u as=0p ps=0u
M1012 a_821_297# B1 a_455_297# VPB phighvt w=1e+06u l=150000u
+  ad=0p pd=0u as=0p ps=0u
M1013 a_821_297# B1 a_455_297# VPB phighvt w=1e+06u l=150000u
+  ad=0p pd=0u as=0p ps=0u
M1014 Y D1 a_28_297# VPB phighvt w=1e+06u l=150000u
+  ad=0p pd=0u as=0p ps=0u
M1015 Y D1 a_28_297# VPB phighvt w=1e+06u l=150000u
+  ad=0p pd=0u as=0p ps=0u
M1016 Y D1 VGND VNB nshort w=650000u l=150000u
+  ad=0p pd=0u as=0p ps=0u
M1017 a_1205_47# A1 Y VNB nshort w=650000u l=150000u
+  ad=0p pd=0u as=0p ps=0u
M1018 a_821_297# A1 VPWR VPB phighvt w=1e+06u l=150000u
+  ad=0p pd=0u as=0p ps=0u
M1019 VPWR A2 a_821_297# VPB phighvt w=1e+06u l=150000u
+  ad=0p pd=0u as=0p ps=0u
M1020 a_1205_47# A1 Y VNB nshort w=650000u l=150000u
+  ad=0p pd=0u as=0p ps=0u
M1021 VGND C1 Y VNB nshort w=650000u l=150000u
+  ad=0p pd=0u as=0p ps=0u
M1022 a_1205_47# A2 VGND VNB nshort w=650000u l=150000u
+  ad=0p pd=0u as=0p ps=0u
M1023 a_455_297# C1 a_28_297# VPB phighvt w=1e+06u l=150000u
+  ad=0p pd=0u as=0p ps=0u
M1024 VGND A2 a_1205_47# VNB nshort w=650000u l=150000u
+  ad=0p pd=0u as=0p ps=0u
M1025 a_455_297# B1 a_821_297# VPB phighvt w=1e+06u l=150000u
+  ad=0p pd=0u as=0p ps=0u
M1026 VPWR A1 a_821_297# VPB phighvt w=1e+06u l=150000u
+  ad=0p pd=0u as=0p ps=0u
M1027 Y D1 VGND VNB nshort w=650000u l=150000u
+  ad=0p pd=0u as=0p ps=0u
M1028 a_455_297# C1 a_28_297# VPB phighvt w=1e+06u l=150000u
+  ad=0p pd=0u as=0p ps=0u
M1029 Y B1 VGND VNB nshort w=650000u l=150000u
+  ad=0p pd=0u as=0p ps=0u
M1030 a_821_297# A2 VPWR VPB phighvt w=1e+06u l=150000u
+  ad=0p pd=0u as=0p ps=0u
M1031 a_455_297# B1 a_821_297# VPB phighvt w=1e+06u l=150000u
+  ad=0p pd=0u as=0p ps=0u
M1032 a_28_297# D1 Y VPB phighvt w=1e+06u l=150000u
+  ad=0p pd=0u as=0p ps=0u
M1033 a_821_297# A1 VPWR VPB phighvt w=1e+06u l=150000u
+  ad=0p pd=0u as=0p ps=0u
M1034 Y A1 a_1205_47# VNB nshort w=650000u l=150000u
+  ad=0p pd=0u as=0p ps=0u
M1035 VPWR A1 a_821_297# VPB phighvt w=1e+06u l=150000u
+  ad=0p pd=0u as=0p ps=0u
M1036 VGND C1 Y VNB nshort w=650000u l=150000u
+  ad=0p pd=0u as=0p ps=0u
M1037 VGND B1 Y VNB nshort w=650000u l=150000u
+  ad=0p pd=0u as=0p ps=0u
M1038 Y A1 a_1205_47# VNB nshort w=650000u l=150000u
+  ad=0p pd=0u as=0p ps=0u
M1039 a_1205_47# A2 VGND VNB nshort w=650000u l=150000u
+  ad=0p pd=0u as=0p ps=0u
.ends


******* EOF

* Copyright 2020 The SkyWater PDK Authors
*
* Licensed under the Apache License, Version 2.0 (the "License");
* you may not use this file except in compliance with the License.
* You may obtain a copy of the License at
*
*     https://www.apache.org/licenses/LICENSE-2.0
*
* Unless required by applicable law or agreed to in writing, software
* distributed under the License is distributed on an "AS IS" BASIS,
* WITHOUT WARRANTIES OR CONDITIONS OF ANY KIND, either express or implied.
* See the License for the specific language governing permissions and
* limitations under the License.
*
* SPDX-License-Identifier: Apache-2.0


.subckt sky130_fd_sc_hd__a211o_1 A1 A2 B1 C1 VGND VNB VPB VPWR X
M1000 a_472_297# B1 a_217_297# VPB phighvt w=1e+06u l=150000u
+  ad=3.1e+11p pd=2.62e+06u as=5.45e+11p ps=5.09e+06u
M1001 VGND B1 a_80_21# VNB nshort w=650000u l=150000u
+  ad=7.215e+11p pd=4.82e+06u as=3.5425e+11p ps=3.69e+06u
M1002 a_80_21# C1 a_472_297# VPB phighvt w=1e+06u l=150000u
+  ad=2.65e+11p pd=2.53e+06u as=0p ps=0u
M1003 a_300_47# A2 VGND VNB nshort w=650000u l=150000u
+  ad=1.82e+11p pd=1.86e+06u as=0p ps=0u
M1004 VGND a_80_21# X VNB nshort w=650000u l=150000u
+  ad=0p pd=0u as=1.7225e+11p ps=1.83e+06u
M1005 a_217_297# A1 VPWR VPB phighvt w=1e+06u l=150000u
+  ad=0p pd=0u as=5.45e+11p ps=5.09e+06u
M1006 VPWR a_80_21# X VPB phighvt w=1e+06u l=150000u
+  ad=0p pd=0u as=2.65e+11p ps=2.53e+06u
M1007 a_80_21# C1 VGND VNB nshort w=650000u l=150000u
+  ad=0p pd=0u as=0p ps=0u
M1008 a_80_21# A1 a_300_47# VNB nshort w=650000u l=150000u
+  ad=0p pd=0u as=0p ps=0u
M1009 VPWR A2 a_217_297# VPB phighvt w=1e+06u l=150000u
+  ad=0p pd=0u as=0p ps=0u
.ends


******* EOF

* Copyright 2020 The SkyWater PDK Authors
*
* Licensed under the Apache License, Version 2.0 (the "License");
* you may not use this file except in compliance with the License.
* You may obtain a copy of the License at
*
*     https://www.apache.org/licenses/LICENSE-2.0
*
* Unless required by applicable law or agreed to in writing, software
* distributed under the License is distributed on an "AS IS" BASIS,
* WITHOUT WARRANTIES OR CONDITIONS OF ANY KIND, either express or implied.
* See the License for the specific language governing permissions and
* limitations under the License.
*
* SPDX-License-Identifier: Apache-2.0


.subckt sky130_fd_sc_hd__a211o_2 A1 A2 B1 C1 VGND VNB VPB VPWR X
M1000 a_79_21# C1 a_585_297# VPB phighvt w=1e+06u l=150000u
+  ad=2.6e+11p pd=2.52e+06u as=2.1e+11p ps=2.42e+06u
M1001 a_348_47# A2 VGND VNB nshort w=650000u l=150000u
+  ad=2.665e+11p pd=2.12e+06u as=7.8325e+11p ps=6.31e+06u
M1002 VPWR a_79_21# X VPB phighvt w=1e+06u l=150000u
+  ad=9.1e+11p pd=7.82e+06u as=2.7e+11p ps=2.54e+06u
M1003 a_299_297# A1 VPWR VPB phighvt w=1e+06u l=150000u
+  ad=5.9e+11p pd=5.18e+06u as=0p ps=0u
M1004 VGND B1 a_79_21# VNB nshort w=650000u l=150000u
+  ad=0p pd=0u as=3.9975e+11p ps=3.83e+06u
M1005 X a_79_21# VPWR VPB phighvt w=1e+06u l=150000u
+  ad=0p pd=0u as=0p ps=0u
M1006 a_79_21# C1 VGND VNB nshort w=650000u l=150000u
+  ad=0p pd=0u as=0p ps=0u
M1007 VPWR A2 a_299_297# VPB phighvt w=1e+06u l=150000u
+  ad=0p pd=0u as=0p ps=0u
M1008 a_79_21# A1 a_348_47# VNB nshort w=650000u l=150000u
+  ad=0p pd=0u as=0p ps=0u
M1009 a_585_297# B1 a_299_297# VPB phighvt w=1e+06u l=150000u
+  ad=0p pd=0u as=0p ps=0u
M1010 X a_79_21# VGND VNB nshort w=650000u l=150000u
+  ad=1.82e+11p pd=1.86e+06u as=0p ps=0u
M1011 VGND a_79_21# X VNB nshort w=650000u l=150000u
+  ad=0p pd=0u as=0p ps=0u
.ends


******* EOF

* Copyright 2020 The SkyWater PDK Authors
*
* Licensed under the Apache License, Version 2.0 (the "License");
* you may not use this file except in compliance with the License.
* You may obtain a copy of the License at
*
*     https://www.apache.org/licenses/LICENSE-2.0
*
* Unless required by applicable law or agreed to in writing, software
* distributed under the License is distributed on an "AS IS" BASIS,
* WITHOUT WARRANTIES OR CONDITIONS OF ANY KIND, either express or implied.
* See the License for the specific language governing permissions and
* limitations under the License.
*
* SPDX-License-Identifier: Apache-2.0


.subckt sky130_fd_sc_hd__a211o_4 A1 A2 B1 C1 VGND VNB VPB VPWR X
M1000 VPWR a_79_204# X VPB phighvt w=1e+06u l=150000u
+  ad=1.47e+12p pd=1.294e+07u as=5.6e+11p ps=5.12e+06u
M1001 VPWR A2 a_473_297# VPB phighvt w=1e+06u l=150000u
+  ad=0p pd=0u as=1.19e+12p ps=1.038e+07u
M1002 a_79_204# C1 VGND VNB nshort w=650000u l=150000u
+  ad=6.435e+11p pd=5.88e+06u as=1.20575e+12p ps=1.151e+07u
M1003 X a_79_204# VGND VNB nshort w=650000u l=150000u
+  ad=3.7375e+11p pd=3.75e+06u as=0p ps=0u
M1004 VPWR a_79_204# X VPB phighvt w=1e+06u l=150000u
+  ad=0p pd=0u as=0p ps=0u
M1005 a_951_47# A2 VGND VNB nshort w=650000u l=150000u
+  ad=1.82e+11p pd=1.86e+06u as=0p ps=0u
M1006 VGND A2 a_1123_47# VNB nshort w=650000u l=150000u
+  ad=0p pd=0u as=1.82e+11p ps=1.86e+06u
M1007 VGND C1 a_79_204# VNB nshort w=650000u l=150000u
+  ad=0p pd=0u as=0p ps=0u
M1008 a_79_204# C1 a_555_297# VPB phighvt w=1e+06u l=150000u
+  ad=2.8e+11p pd=2.56e+06u as=2.8e+11p ps=2.56e+06u
M1009 a_473_297# A2 VPWR VPB phighvt w=1e+06u l=150000u
+  ad=0p pd=0u as=0p ps=0u
M1010 a_473_297# B1 a_727_297# VPB phighvt w=1e+06u l=150000u
+  ad=0p pd=0u as=3.2e+11p ps=2.64e+06u
M1011 VGND a_79_204# X VNB nshort w=650000u l=150000u
+  ad=0p pd=0u as=0p ps=0u
M1012 X a_79_204# VPWR VPB phighvt w=1e+06u l=150000u
+  ad=0p pd=0u as=0p ps=0u
M1013 VGND a_79_204# X VNB nshort w=650000u l=150000u
+  ad=0p pd=0u as=0p ps=0u
M1014 a_79_204# B1 VGND VNB nshort w=650000u l=150000u
+  ad=0p pd=0u as=0p ps=0u
M1015 X a_79_204# VPWR VPB phighvt w=1e+06u l=150000u
+  ad=0p pd=0u as=0p ps=0u
M1016 a_473_297# A1 VPWR VPB phighvt w=1e+06u l=150000u
+  ad=0p pd=0u as=0p ps=0u
M1017 VGND B1 a_79_204# VNB nshort w=650000u l=150000u
+  ad=0p pd=0u as=0p ps=0u
M1018 a_79_204# A1 a_951_47# VNB nshort w=650000u l=150000u
+  ad=0p pd=0u as=0p ps=0u
M1019 a_1123_47# A1 a_79_204# VNB nshort w=650000u l=150000u
+  ad=0p pd=0u as=0p ps=0u
M1020 a_727_297# C1 a_79_204# VPB phighvt w=1e+06u l=150000u
+  ad=0p pd=0u as=0p ps=0u
M1021 VPWR A1 a_473_297# VPB phighvt w=1e+06u l=150000u
+  ad=0p pd=0u as=0p ps=0u
M1022 X a_79_204# VGND VNB nshort w=650000u l=150000u
+  ad=0p pd=0u as=0p ps=0u
M1023 a_555_297# B1 a_473_297# VPB phighvt w=1e+06u l=150000u
+  ad=0p pd=0u as=0p ps=0u
.ends


******* EOF

* Copyright 2020 The SkyWater PDK Authors
*
* Licensed under the Apache License, Version 2.0 (the "License");
* you may not use this file except in compliance with the License.
* You may obtain a copy of the License at
*
*     https://www.apache.org/licenses/LICENSE-2.0
*
* Unless required by applicable law or agreed to in writing, software
* distributed under the License is distributed on an "AS IS" BASIS,
* WITHOUT WARRANTIES OR CONDITIONS OF ANY KIND, either express or implied.
* See the License for the specific language governing permissions and
* limitations under the License.
*
* SPDX-License-Identifier: Apache-2.0


.subckt sky130_fd_sc_hd__a211oi_1 A1 A2 B1 C1 VGND VNB VPB VPWR Y
M1000 a_56_297# A1 VPWR VPB phighvt w=1e+06u l=150000u
+  ad=5.45e+11p pd=5.09e+06u as=2.8e+11p ps=2.56e+06u
M1001 Y C1 VGND VNB nshort w=650000u l=150000u
+  ad=3.5425e+11p pd=3.69e+06u as=4.68e+11p ps=4.04e+06u
M1002 a_139_47# A2 VGND VNB nshort w=650000u l=150000u
+  ad=1.82e+11p pd=1.86e+06u as=0p ps=0u
M1003 Y A1 a_139_47# VNB nshort w=650000u l=150000u
+  ad=0p pd=0u as=0p ps=0u
M1004 VGND B1 Y VNB nshort w=650000u l=150000u
+  ad=0p pd=0u as=0p ps=0u
M1005 a_311_297# B1 a_56_297# VPB phighvt w=1e+06u l=150000u
+  ad=3.1e+11p pd=2.62e+06u as=0p ps=0u
M1006 Y C1 a_311_297# VPB phighvt w=1e+06u l=150000u
+  ad=2.65e+11p pd=2.53e+06u as=0p ps=0u
M1007 VPWR A2 a_56_297# VPB phighvt w=1e+06u l=150000u
+  ad=0p pd=0u as=0p ps=0u
.ends


******* EOF

* Copyright 2020 The SkyWater PDK Authors
*
* Licensed under the Apache License, Version 2.0 (the "License");
* you may not use this file except in compliance with the License.
* You may obtain a copy of the License at
*
*     https://www.apache.org/licenses/LICENSE-2.0
*
* Unless required by applicable law or agreed to in writing, software
* distributed under the License is distributed on an "AS IS" BASIS,
* WITHOUT WARRANTIES OR CONDITIONS OF ANY KIND, either express or implied.
* See the License for the specific language governing permissions and
* limitations under the License.
*
* SPDX-License-Identifier: Apache-2.0


.subckt sky130_fd_sc_hd__a211oi_2 A1 A2 B1 C1 VGND VNB VPB VPWR Y
M1000 VGND A2 a_485_47# VNB nshort w=650000u l=150000u
+  ad=7.085e+11p pd=7.38e+06u as=5.265e+11p ps=5.52e+06u
M1001 VPWR A2 a_292_297# VPB phighvt w=1e+06u l=150000u
+  ad=8.1e+11p pd=7.62e+06u as=8.4e+11p ps=7.68e+06u
M1002 Y C1 VGND VNB nshort w=650000u l=150000u
+  ad=5.46e+11p pd=5.58e+06u as=0p ps=0u
M1003 a_37_297# B1 a_292_297# VPB phighvt w=1e+06u l=150000u
+  ad=8.1e+11p pd=7.62e+06u as=0p ps=0u
M1004 VPWR A1 a_292_297# VPB phighvt w=1e+06u l=150000u
+  ad=0p pd=0u as=0p ps=0u
M1005 VGND B1 Y VNB nshort w=650000u l=150000u
+  ad=0p pd=0u as=0p ps=0u
M1006 a_485_47# A2 VGND VNB nshort w=650000u l=150000u
+  ad=0p pd=0u as=0p ps=0u
M1007 VGND C1 Y VNB nshort w=650000u l=150000u
+  ad=0p pd=0u as=0p ps=0u
M1008 Y A1 a_485_47# VNB nshort w=650000u l=150000u
+  ad=0p pd=0u as=0p ps=0u
M1009 Y C1 a_37_297# VPB phighvt w=1e+06u l=150000u
+  ad=2.8e+11p pd=2.56e+06u as=0p ps=0u
M1010 a_292_297# B1 a_37_297# VPB phighvt w=1e+06u l=150000u
+  ad=0p pd=0u as=0p ps=0u
M1011 a_292_297# A1 VPWR VPB phighvt w=1e+06u l=150000u
+  ad=0p pd=0u as=0p ps=0u
M1012 Y B1 VGND VNB nshort w=650000u l=150000u
+  ad=0p pd=0u as=0p ps=0u
M1013 a_485_47# A1 Y VNB nshort w=650000u l=150000u
+  ad=0p pd=0u as=0p ps=0u
M1014 a_292_297# A2 VPWR VPB phighvt w=1e+06u l=150000u
+  ad=0p pd=0u as=0p ps=0u
M1015 a_37_297# C1 Y VPB phighvt w=1e+06u l=150000u
+  ad=0p pd=0u as=0p ps=0u
.ends


******* EOF

* Copyright 2020 The SkyWater PDK Authors
*
* Licensed under the Apache License, Version 2.0 (the "License");
* you may not use this file except in compliance with the License.
* You may obtain a copy of the License at
*
*     https://www.apache.org/licenses/LICENSE-2.0
*
* Unless required by applicable law or agreed to in writing, software
* distributed under the License is distributed on an "AS IS" BASIS,
* WITHOUT WARRANTIES OR CONDITIONS OF ANY KIND, either express or implied.
* See the License for the specific language governing permissions and
* limitations under the License.
*
* SPDX-License-Identifier: Apache-2.0


.subckt sky130_fd_sc_hd__a211oi_4 A1 A2 B1 C1 VGND VNB VPB VPWR Y
M1000 VPWR A1 a_27_297# VPB phighvt w=1e+06u l=150000u
+  ad=1.08e+12p pd=1.016e+07u as=1.87e+12p ps=1.774e+07u
M1001 VPWR A2 a_27_297# VPB phighvt w=1e+06u l=150000u
+  ad=0p pd=0u as=0p ps=0u
M1002 Y B1 VGND VNB nshort w=650000u l=150000u
+  ad=1.105e+12p pd=1.12e+07u as=1.2415e+12p ps=1.292e+07u
M1003 a_27_297# A2 VPWR VPB phighvt w=1e+06u l=150000u
+  ad=0p pd=0u as=0p ps=0u
M1004 a_27_297# A1 VPWR VPB phighvt w=1e+06u l=150000u
+  ad=0p pd=0u as=0p ps=0u
M1005 Y C1 a_781_297# VPB phighvt w=1e+06u l=150000u
+  ad=5.8e+11p pd=5.16e+06u as=5.5e+11p ps=5.1e+06u
M1006 VGND B1 Y VNB nshort w=650000u l=150000u
+  ad=0p pd=0u as=0p ps=0u
M1007 a_949_297# B1 a_27_297# VPB phighvt w=1e+06u l=150000u
+  ad=3e+11p pd=2.6e+06u as=0p ps=0u
M1008 a_1301_297# C1 Y VPB phighvt w=1e+06u l=150000u
+  ad=3.1e+11p pd=2.62e+06u as=0p ps=0u
M1009 VGND A2 a_109_47# VNB nshort w=650000u l=150000u
+  ad=0p pd=0u as=7.02e+11p ps=7.36e+06u
M1010 Y C1 a_949_297# VPB phighvt w=1e+06u l=150000u
+  ad=0p pd=0u as=0p ps=0u
M1011 a_27_297# B1 a_781_297# VPB phighvt w=1e+06u l=150000u
+  ad=0p pd=0u as=0p ps=0u
M1012 a_27_297# B1 a_1301_297# VPB phighvt w=1e+06u l=150000u
+  ad=0p pd=0u as=0p ps=0u
M1013 Y A1 a_109_47# VNB nshort w=650000u l=150000u
+  ad=0p pd=0u as=0p ps=0u
M1014 a_109_47# A1 Y VNB nshort w=650000u l=150000u
+  ad=0p pd=0u as=0p ps=0u
M1015 Y C1 VGND VNB nshort w=650000u l=150000u
+  ad=0p pd=0u as=0p ps=0u
M1016 a_781_297# B1 a_27_297# VPB phighvt w=1e+06u l=150000u
+  ad=0p pd=0u as=0p ps=0u
M1017 a_781_297# C1 Y VPB phighvt w=1e+06u l=150000u
+  ad=0p pd=0u as=0p ps=0u
M1018 a_109_47# A2 VGND VNB nshort w=650000u l=150000u
+  ad=0p pd=0u as=0p ps=0u
M1019 VPWR A2 a_27_297# VPB phighvt w=1e+06u l=150000u
+  ad=0p pd=0u as=0p ps=0u
M1020 Y A1 a_109_47# VNB nshort w=650000u l=150000u
+  ad=0p pd=0u as=0p ps=0u
M1021 VGND C1 Y VNB nshort w=650000u l=150000u
+  ad=0p pd=0u as=0p ps=0u
M1022 VPWR A1 a_27_297# VPB phighvt w=1e+06u l=150000u
+  ad=0p pd=0u as=0p ps=0u
M1023 Y B1 VGND VNB nshort w=650000u l=150000u
+  ad=0p pd=0u as=0p ps=0u
M1024 a_109_47# A1 Y VNB nshort w=650000u l=150000u
+  ad=0p pd=0u as=0p ps=0u
M1025 VGND A2 a_109_47# VNB nshort w=650000u l=150000u
+  ad=0p pd=0u as=0p ps=0u
M1026 VGND B1 Y VNB nshort w=650000u l=150000u
+  ad=0p pd=0u as=0p ps=0u
M1027 Y C1 VGND VNB nshort w=650000u l=150000u
+  ad=0p pd=0u as=0p ps=0u
M1028 a_27_297# A1 VPWR VPB phighvt w=1e+06u l=150000u