* Copyright 2020 The SkyWater PDK Authors
*
* Licensed under the Apache License, Version 2.0 (the "License");
* you may not use this file except in compliance with the License.
* You may obtain a copy of the License at
*
*     https://www.apache.org/licenses/LICENSE-2.0
*
* Unless required by applicable law or agreed to in writing, software
* distributed under the License is distributed on an "AS IS" BASIS,
* WITHOUT WARRANTIES OR CONDITIONS OF ANY KIND, either express or implied.
* See the License for the specific language governing permissions and
* limitations under the License.
*
* SPDX-License-Identifier: Apache-2.0


.subckt sky130_fd_sc_ms__a2111o_1 A1 A2 B1 C1 D1 VGND VNB VPB VPWR X
M1000 a_80_392# A2 VPWR VPB pshort w=1e+06u l=180000u
+  ad=5.3e+11p pd=5.06e+06u as=6.012e+11p ps=5.38e+06u
M1001 a_356_392# B1 a_80_392# VPB pshort w=1e+06u l=180000u
+  ad=2.1e+11p pd=2.42e+06u as=0p ps=0u
M1002 a_168_136# A1 a_85_136# VNB nlowvt w=640000u l=150000u
+  ad=1.344e+11p pd=1.7e+06u as=5.184e+11p ps=5.46e+06u
M1003 a_85_136# D1 VGND VNB nlowvt w=640000u l=150000u
+  ad=0p pd=0u as=7.465e+11p ps=6.29e+06u
M1004 a_85_136# D1 a_434_392# VPB pshort w=1e+06u l=180000u
+  ad=2.6e+11p pd=2.52e+06u as=2.1e+11p ps=2.42e+06u
M1005 VGND A2 a_168_136# VNB nlowvt w=640000u l=150000u
+  ad=0p pd=0u as=0p ps=0u
M1006 a_85_136# B1 VGND VNB nlowvt w=640000u l=150000u
+  ad=0p pd=0u as=0p ps=0u
M1007 VGND C1 a_85_136# VNB nlowvt w=640000u l=150000u
+  ad=0p pd=0u as=0p ps=0u
M1008 X a_85_136# VGND VNB nlowvt w=740000u l=150000u
+  ad=1.961e+11p pd=2.01e+06u as=0p ps=0u
M1009 a_434_392# C1 a_356_392# VPB pshort w=1e+06u l=180000u
+  ad=0p pd=0u as=0p ps=0u
M1010 VPWR A1 a_80_392# VPB pshort w=1e+06u l=180000u
+  ad=0p pd=0u as=0p ps=0u
M1011 X a_85_136# VPWR VPB pshort w=1.12e+06u l=180000u
+  ad=2.912e+11p pd=2.76e+06u as=0p ps=0u
.ends


******* EOF

* Copyright 2020 The SkyWater PDK Authors
*
* Licensed under the Apache License, Version 2.0 (the "License");
* you may not use this file except in compliance with the License.
* You may obtain a copy of the License at
*
*     https://www.apache.org/licenses/LICENSE-2.0
*
* Unless required by applicable law or agreed to in writing, software
* distributed under the License is distributed on an "AS IS" BASIS,
* WITHOUT WARRANTIES OR CONDITIONS OF ANY KIND, either express or implied.
* See the License for the specific language governing permissions and
* limitations under the License.
*
* SPDX-License-Identifier: Apache-2.0


.subckt sky130_fd_sc_ms__a2111o_2 A1 A2 B1 C1 D1 VGND VNB VPB VPWR X
M1000 a_633_368# B1 a_525_368# VPB pshort w=1.12e+06u l=180000u
+  ad=6.944e+11p pd=5.72e+06u as=4.032e+11p ps=2.96e+06u
M1001 a_447_368# D1 a_91_244# VPB pshort w=1.12e+06u l=180000u
+  ad=2.352e+11p pd=2.66e+06u as=2.912e+11p ps=2.76e+06u
M1002 VPWR A2 a_633_368# VPB pshort w=1.12e+06u l=180000u
+  ad=9.856e+11p pd=8.48e+06u as=0p ps=0u
M1003 a_91_244# C1 VGND VNB nlowvt w=740000u l=150000u
+  ad=5.994e+11p pd=6.06e+06u as=1.0508e+12p ps=8.76e+06u
M1004 X a_91_244# VPWR VPB pshort w=1.12e+06u l=180000u
+  ad=3.024e+11p pd=2.78e+06u as=0p ps=0u
M1005 VPWR a_91_244# X VPB pshort w=1.12e+06u l=180000u
+  ad=0p pd=0u as=0p ps=0u
M1006 a_525_368# C1 a_447_368# VPB pshort w=1.12e+06u l=180000u
+  ad=0p pd=0u as=0p ps=0u
M1007 a_633_368# A1 VPWR VPB pshort w=1.12e+06u l=180000u
+  ad=0p pd=0u as=0p ps=0u
M1008 VGND a_91_244# X VNB nlowvt w=740000u l=150000u
+  ad=0p pd=0u as=2.072e+11p ps=2.04e+06u
M1009 X a_91_244# VGND VNB nlowvt w=740000u l=150000u
+  ad=0p pd=0u as=0p ps=0u
M1010 a_771_74# A2 VGND VNB nlowvt w=740000u l=150000u
+  ad=1.554e+11p pd=1.9e+06u as=0p ps=0u
M1011 a_91_244# A1 a_771_74# VNB nlowvt w=740000u l=150000u
+  ad=0p pd=0u as=0p ps=0u
M1012 VGND B1 a_91_244# VNB nlowvt w=740000u l=150000u
+  ad=0p pd=0u as=0p ps=0u
M1013 VGND D1 a_91_244# VNB nlowvt w=740000u l=150000u
+  ad=0p pd=0u as=0p ps=0u
.ends


******* EOF

* Copyright 2020 The SkyWater PDK Authors
*
* Licensed under the Apache License, Version 2.0 (the "License");
* you may not use this file except in compliance with the License.
* You may obtain a copy of the License at
*
*     https://www.apache.org/licenses/LICENSE-2.0
*
* Unless required by applicable law or agreed to in writing, software
* distributed under the License is distributed on an "AS IS" BASIS,
* WITHOUT WARRANTIES OR CONDITIONS OF ANY KIND, either express or implied.
* See the License for the specific language governing permissions and
* limitations under the License.
*
* SPDX-License-Identifier: Apache-2.0


.subckt sky130_fd_sc_ms__a2111o_4 A1 A2 B1 C1 D1 VGND VNB VPB VPWR X
M1000 a_1013_392# A2 VPWR VPB pshort w=1e+06u l=180000u
+  ad=1.06e+12p pd=1.012e+07u as=1.4248e+12p ps=1.338e+07u
M1001 a_137_260# A1 a_1210_74# VNB nlowvt w=640000u l=150000u
+  ad=7.168e+11p pd=7.36e+06u as=5.184e+11p ps=5.46e+06u
M1002 a_137_260# D1 a_549_392# VPB pshort w=1e+06u l=180000u
+  ad=2.7e+11p pd=2.54e+06u as=7.9e+11p ps=7.58e+06u
M1003 VGND a_137_260# X VNB nlowvt w=740000u l=150000u
+  ad=1.3711e+12p pd=1.359e+07u as=4.144e+11p ps=4.08e+06u
M1004 VGND C1 a_137_260# VNB nlowvt w=640000u l=150000u
+  ad=0p pd=0u as=0p ps=0u
M1005 a_549_392# D1 a_137_260# VPB pshort w=1e+06u l=180000u
+  ad=0p pd=0u as=0p ps=0u
M1006 a_817_392# C1 a_549_392# VPB pshort w=1e+06u l=180000u
+  ad=5.4e+11p pd=5.08e+06u as=0p ps=0u
M1007 a_1210_74# A2 VGND VNB nlowvt w=640000u l=150000u
+  ad=0p pd=0u as=0p ps=0u
M1008 a_549_392# C1 a_817_392# VPB pshort w=1e+06u l=180000u
+  ad=0p pd=0u as=0p ps=0u
M1009 VGND B1 a_137_260# VNB nlowvt w=640000u l=150000u
+  ad=0p pd=0u as=0p ps=0u
M1010 VGND a_137_260# X VNB nlowvt w=740000u l=150000u
+  ad=0p pd=0u as=0p ps=0u
M1011 a_137_260# D1 VGND VNB nlowvt w=640000u l=150000u
+  ad=0p pd=0u as=0p ps=0u
M1012 a_1210_74# A1 a_137_260# VNB nlowvt w=640000u l=150000u
+  ad=0p pd=0u as=0p ps=0u
M1013 a_817_392# B1 a_1013_392# VPB pshort w=1e+06u l=180000u
+  ad=0p pd=0u as=0p ps=0u
M1014 X a_137_260# VPWR VPB pshort w=1.12e+06u l=180000u
+  ad=6.048e+11p pd=5.56e+06u as=0p ps=0u
M1015 a_1013_392# B1 a_817_392# VPB pshort w=1e+06u l=180000u
+  ad=0p pd=0u as=0p ps=0u
M1016 VPWR a_137_260# X VPB pshort w=1.12e+06u l=180000u
+  ad=0p pd=0u as=0p ps=0u
M1017 VPWR A1 a_1013_392# VPB pshort w=1e+06u l=180000u
+  ad=0p pd=0u as=0p ps=0u
M1018 X a_137_260# VPWR VPB pshort w=1.12e+06u l=180000u
+  ad=0p pd=0u as=0p ps=0u
M1019 a_1013_392# A1 VPWR VPB pshort w=1e+06u l=180000u
+  ad=0p pd=0u as=0p ps=0u
M1020 X a_137_260# VGND VNB nlowvt w=740000u l=150000u
+  ad=0p pd=0u as=0p ps=0u
M1021 VGND D1 a_137_260# VNB nlowvt w=640000u l=150000u
+  ad=0p pd=0u as=0p ps=0u
M1022 a_137_260# C1 VGND VNB nlowvt w=640000u l=150000u
+  ad=0p pd=0u as=0p ps=0u
M1023 VPWR a_137_260# X VPB pshort w=1.12e+06u l=180000u
+  ad=0p pd=0u as=0p ps=0u
M1024 X a_137_260# VGND VNB nlowvt w=740000u l=150000u
+  ad=0p pd=0u as=0p ps=0u
M1025 VPWR A2 a_1013_392# VPB pshort w=1e+06u l=180000u
+  ad=0p pd=0u as=0p ps=0u
M1026 a_137_260# B1 VGND VNB nlowvt w=640000u l=150000u
+  ad=0p pd=0u as=0p ps=0u
M1027 VGND A2 a_1210_74# VNB nlowvt w=640000u l=150000u
+  ad=0p pd=0u as=0p ps=0u
.ends


******* EOF

* Copyright 2020 The SkyWater PDK Authors
*
* Licensed under the Apache License, Version 2.0 (the "License");
* you may not use this file except in compliance with the License.
* You may obtain a copy of the License at
*
*     https://www.apache.org/licenses/LICENSE-2.0
*
* Unless required by applicable law or agreed to in writing, software
* distributed under the License is distributed on an "AS IS" BASIS,
* WITHOUT WARRANTIES OR CONDITIONS OF ANY KIND, either express or implied.
* See the License for the specific language governing permissions and
* limitations under the License.
*
* SPDX-License-Identifier: Apache-2.0


.subckt sky130_fd_sc_ms__a2111oi_1 A1 A2 B1 C1 D1 VGND VNB VPB VPWR Y
M1000 a_345_368# A2 VPWR VPB pshort w=1.12e+06u l=180000u
+  ad=6.944e+11p pd=5.72e+06u as=4.032e+11p ps=2.96e+06u
M1001 VGND A2 a_461_74# VNB nlowvt w=740000u l=150000u
+  ad=7.77e+11p pd=6.54e+06u as=2.368e+11p ps=2.12e+06u
M1002 a_461_74# A1 Y VNB nlowvt w=740000u l=150000u
+  ad=0p pd=0u as=4.144e+11p ps=4.08e+06u
M1003 Y D1 VGND VNB nlowvt w=740000u l=150000u
+  ad=0p pd=0u as=0p ps=0u
M1004 a_237_368# C1 a_159_368# VPB pshort w=1.12e+06u l=180000u
+  ad=4.032e+11p pd=2.96e+06u as=2.352e+11p ps=2.66e+06u
M1005 a_345_368# B1 a_237_368# VPB pshort w=1.12e+06u l=180000u
+  ad=0p pd=0u as=0p ps=0u
M1006 VGND C1 Y VNB nlowvt w=740000u l=150000u
+  ad=0p pd=0u as=0p ps=0u
M1007 a_159_368# D1 Y VPB pshort w=1.12e+06u l=180000u
+  ad=0p pd=0u as=2.912e+11p ps=2.76e+06u
M1008 VPWR A1 a_345_368# VPB pshort w=1.12e+06u l=180000u
+  ad=0p pd=0u as=0p ps=0u
M1009 Y B1 VGND VNB nlowvt w=740000u l=150000u
+  ad=0p pd=0u as=0p ps=0u
.ends


******* EOF

* Copyright 2020 The SkyWater PDK Authors
*
* Licensed under the Apache License, Version 2.0 (the "License");
* you may not use this file except in compliance with the License.
* You may obtain a copy of the License at
*
*     https://www.apache.org/licenses/LICENSE-2.0
*
* Unless required by applicable law or agreed to in writing, software
* distributed under the License is distributed on an "AS IS" BASIS,
* WITHOUT WARRANTIES OR CONDITIONS OF ANY KIND, either express or implied.
* See the License for the specific language governing permissions and
* limitations under the License.
*
* SPDX-License-Identifier: Apache-2.0


.subckt sky130_fd_sc_ms__a2111oi_2 A1 A2 B1 C1 D1 VGND VNB VPB VPWR Y
M1000 VGND C1 Y VNB nlowvt w=740000u l=150000u
+  ad=7.141e+11p pd=6.37e+06u as=6.919e+11p ps=6.31e+06u
M1001 a_722_74# A1 Y VNB nlowvt w=740000u l=150000u
+  ad=5.994e+11p pd=6.06e+06u as=0p ps=0u
M1002 a_533_368# A2 VPWR VPB pshort w=1.12e+06u l=180000u
+  ad=1.1872e+12p pd=1.108e+07u as=6.048e+11p ps=5.56e+06u
M1003 Y D1 a_69_368# VPB pshort w=1.12e+06u l=180000u
+  ad=3.024e+11p pd=2.78e+06u as=8.848e+11p ps=8.3e+06u
M1004 a_69_368# D1 Y VPB pshort w=1.12e+06u l=180000u
+  ad=0p pd=0u as=0p ps=0u
M1005 a_722_74# A2 VGND VNB nlowvt w=740000u l=150000u
+  ad=0p pd=0u as=0p ps=0u
M1006 a_337_368# C1 a_69_368# VPB pshort w=1.12e+06u l=180000u
+  ad=6.048e+11p pd=5.56e+06u as=0p ps=0u
M1007 Y D1 VGND VNB nlowvt w=740000u l=150000u
+  ad=0p pd=0u as=0p ps=0u
M1008 a_69_368# C1 a_337_368# VPB pshort w=1.12e+06u l=180000u
+  ad=0p pd=0u as=0p ps=0u
M1009 Y B1 VGND VNB nlowvt w=740000u l=150000u
+  ad=0p pd=0u as=0p ps=0u
M1010 a_337_368# B1 a_533_368# VPB pshort w=1.12e+06u l=180000u
+  ad=0p pd=0u as=0p ps=0u
M1011 a_533_368# B1 a_337_368# VPB pshort w=1.12e+06u l=180000u
+  ad=0p pd=0u as=0p ps=0u
M1012 VPWR A1 a_533_368# VPB pshort w=1.12e+06u l=180000u
+  ad=0p pd=0u as=0p ps=0u
M1013 VGND A2 a_722_74# VNB nlowvt w=740000u l=150000u
+  ad=0p pd=0u as=0p ps=0u
M1014 Y A1 a_722_74# VNB nlowvt w=740000u l=150000u
+  ad=0p pd=0u as=0p ps=0u
M1015 a_533_368# A1 VPWR VPB pshort w=1.12e+06u l=180000u
+  ad=0p pd=0u as=0p ps=0u
M1016 VPWR A2 a_533_368# VPB pshort w=1.12e+06u l=180000u
+  ad=0p pd=0u as=0p ps=0u
.ends


******* EOF

* Copyright 2020 The SkyWater PDK Authors
*
* Licensed under the Apache License, Version 2.0 (the "License");
* you may not use this file except in compliance with the License.
* You may obtain a copy of the License at
*
*     https://www.apache.org/licenses/LICENSE-2.0
*
* Unless required by applicable law or agreed to in writing, software
* distributed under the License is distributed on an "AS IS" BASIS,
* WITHOUT WARRANTIES OR CONDITIONS OF ANY KIND, either express or implied.
* See the License for the specific language governing permissions and
* limitations under the License.
*
* SPDX-License-Identifier: Apache-2.0


.subckt sky130_fd_sc_ms__a2111oi_4 A1 A2 B1 C1 D1 VGND VNB VPB VPWR Y
M1000 a_477_368# C1 a_29_368# VPB pshort w=1.12e+06u l=180000u
+  ad=1.2096e+12p pd=1.112e+07u as=1.4896e+12p ps=1.386e+07u
M1001 VPWR A1 a_853_368# VPB pshort w=1.12e+06u l=180000u
+  ad=1.2096e+12p pd=1.112e+07u as=2.1168e+12p ps=1.946e+07u
M1002 a_29_368# C1 a_477_368# VPB pshort w=1.12e+06u l=180000u
+  ad=0p pd=0u as=0p ps=0u
M1003 a_853_368# A1 VPWR VPB pshort w=1.12e+06u l=180000u
+  ad=0p pd=0u as=0p ps=0u
M1004 a_477_368# C1 a_29_368# VPB pshort w=1.12e+06u l=180000u
+  ad=0p pd=0u as=0p ps=0u
M1005 VPWR A2 a_853_368# VPB pshort w=1.12e+06u l=180000u
+  ad=0p pd=0u as=0p ps=0u
M1006 a_29_368# C1 a_477_368# VPB pshort w=1.12e+06u l=180000u
+  ad=0p pd=0u as=0p ps=0u
M1007 a_1228_74# A2 VGND VNB nlowvt w=740000u l=150000u
+  ad=1.0434e+12p pd=1.022e+07u as=1.887e+12p ps=1.398e+07u
M1008 a_853_368# A2 VPWR VPB pshort w=1.12e+06u l=180000u
+  ad=0p pd=0u as=0p ps=0u
M1009 a_1228_74# A1 Y VNB nlowvt w=740000u l=150000u
+  ad=0p pd=0u as=1.036e+12p ps=1.02e+07u
M1010 VPWR A2 a_853_368# VPB pshort w=1.12e+06u l=180000u
+  ad=0p pd=0u as=0p ps=0u
M1011 a_1228_74# A1 Y VNB nlowvt w=740000u l=150000u
+  ad=0p pd=0u as=0p ps=0u
M1012 a_477_368# B1 a_853_368# VPB pshort w=1.12e+06u l=180000u
+  ad=0p pd=0u as=0p ps=0u
M1013 Y B1 VGND VNB nlowvt w=740000u l=150000u
+  ad=0p pd=0u as=0p ps=0u
M1014 a_853_368# B1 a_477_368# VPB pshort w=1.12e+06u l=180000u
+  ad=0p pd=0u as=0p ps=0u
M1015 a_853_368# A2 VPWR VPB pshort w=1.12e+06u l=180000u
+  ad=0p pd=0u as=0p ps=0u
M1016 Y C1 VGND VNB nlowvt w=740000u l=150000u
+  ad=0p pd=0u as=0p ps=0u
M1017 Y D1 VGND VNB nlowvt w=740000u l=150000u
+  ad=0p pd=0u as=0p ps=0u
M1018 VGND A2 a_1228_74# VNB nlowvt w=740000u l=150000u
+  ad=0p pd=0u as=0p ps=0u
M1019 VGND B1 Y VNB nlowvt w=740000u l=150000u
+  ad=0p pd=0u as=0p ps=0u
M1020 a_477_368# B1 a_853_368# VPB pshort w=1.12e+06u l=180000u
+  ad=0p pd=0u as=0p ps=0u
M1021 Y D1 a_29_368# VPB pshort w=1.12e+06u l=180000u
+  ad=6.048e+11p pd=5.56e+06u as=0p ps=0u
M1022 a_29_368# D1 Y VPB pshort w=1.12e+06u l=180000u
+  ad=0p pd=0u as=0p ps=0u
M1023 a_1228_74# A2 VGND VNB nlowvt w=740000u l=150000u
+  ad=0p pd=0u as=0p ps=0u
M1024 a_853_368# B1 a_477_368# VPB pshort w=1.12e+06u l=180000u
+  ad=0p pd=0u as=0p ps=0u
M1025 VGND C1 Y VNB nlowvt w=740000u l=150000u
+  ad=0p pd=0u as=0p ps=0u
M1026 Y D1 a_29_368# VPB pshort w=1.12e+06u l=180000u
+  ad=0p pd=0u as=0p ps=0u
M1027 VGND A2 a_1228_74# VNB nlowvt w=740000u l=150000u
+  ad=0p pd=0u as=0p ps=0u
M1028 VPWR A1 a_853_368# VPB pshort w=1.12e+06u l=180000u
+  ad=0p pd=0u as=0p ps=0u
M1029 VGND D1 Y VNB nlowvt w=740000u l=150000u
+  ad=0p pd=0u as=0p ps=0u
M1030 Y A1 a_1228_74# VNB nlowvt w=740000u l=150000u
+  ad=0p pd=0u as=0p ps=0u
M1031 a_29_368# D1 Y VPB pshort w=1.12e+06u l=180000u
+  ad=0p pd=0u as=0p ps=0u
M1032 a_853_368# A1 VPWR VPB pshort w=1.12e+06u l=180000u
+  ad=0p pd=0u as=0p ps=0u
M1033 Y A1 a_1228_74# VNB nlowvt w=740000u l=150000u
+  ad=0p pd=0u as=0p ps=0u
.ends


******* EOF

* Copyright 2020 The SkyWater PDK Authors
*
* Licensed under the Apache License, Version 2.0 (the "License");
* you may not use this file except in compliance with the License.
* You may obtain a copy of the License at
*
*     https://www.apache.org/licenses/LICENSE-2.0
*
* Unless required by applicable law or agreed to in writing, software
* distributed under the License is distributed on an "AS IS" BASIS,
* WITHOUT WARRANTIES OR CONDITIONS OF ANY KIND, either express or implied.
* See the License for the specific language governing permissions and
* limitations under the License.
*
* SPDX-License-Identifier: Apache-2.0


.subckt sky130_fd_sc_ms__a211o_1 A1 A2 B1 C1 VGND VNB VPB VPWR X
M1000 VGND a_81_264# X VNB nlowvt w=740000u l=150000u
+  ad=5.3685e+11p pd=4.68e+06u as=1.961e+11p ps=2.01e+06u
M1001 a_81_264# C1 a_553_392# VPB pshort w=1e+06u l=180000u
+  ad=2.6e+11p pd=2.52e+06u as=2.1e+11p ps=2.42e+06u
M1002 a_279_392# A1 VPWR VPB pshort w=1e+06u l=180000u
+  ad=5.3e+11p pd=5.06e+06u as=5.912e+11p ps=5.36e+06u
M1003 VGND B1 a_81_264# VNB nlowvt w=640000u l=150000u
+  ad=0p pd=0u as=3.488e+11p ps=3.65e+06u
M1004 a_81_264# C1 VGND VNB nlowvt w=640000u l=150000u
+  ad=0p pd=0u as=0p ps=0u
M1005 a_553_392# B1 a_279_392# VPB pshort w=1e+06u l=180000u
+  ad=0p pd=0u as=0p ps=0u
M1006 a_366_136# A2 VGND VNB nlowvt w=640000u l=150000u
+  ad=2.08e+11p pd=1.93e+06u as=0p ps=0u
M1007 VPWR a_81_264# X VPB pshort w=1.12e+06u l=180000u
+  ad=0p pd=0u as=2.912e+11p ps=2.76e+06u
M1008 a_81_264# A1 a_366_136# VNB nlowvt w=640000u l=150000u
+  ad=0p pd=0u as=0p ps=0u
M1009 VPWR A2 a_279_392# VPB pshort w=1e+06u l=180000u
+  ad=0p pd=0u as=0p ps=0u
.ends


******* EOF

* Copyright 2020 The SkyWater PDK Authors
*
* Licensed under the Apache License, Version 2.0 (the "License");
* you may not use this file except in compliance with the License.
* You may obtain a copy of the License at
*
*     https://www.apache.org/licenses/LICENSE-2.0
*
* Unless required by applicable law or agreed to in writing, software
* distributed under the License is distributed on an "AS IS" BASIS,
* WITHOUT WARRANTIES OR CONDITIONS OF ANY KIND, either express or implied.
* See the License for the specific language governing permissions and
* limitations under the License.
*
* SPDX-License-Identifier: Apache-2.0


.subckt sky130_fd_sc_ms__a211o_2 A1 A2 B1 C1 VGND VNB VPB VPWR X
M1000 a_317_392# A1 VPWR VPB pshort w=1e+06u l=180000u
+  ad=5.3e+11p pd=5.06e+06u as=9.424e+11p ps=8.24e+06u
M1001 a_85_270# A1 a_399_74# VNB nlowvt w=740000u l=150000u
+  ad=4.847e+11p pd=4.27e+06u as=1.554e+11p ps=1.9e+06u
M1002 a_603_392# B1 a_317_392# VPB pshort w=1e+06u l=180000u
+  ad=2.4e+11p pd=2.48e+06u as=0p ps=0u
M1003 a_399_74# A2 VGND VNB nlowvt w=740000u l=150000u
+  ad=0p pd=0u as=9.731e+11p ps=7.07e+06u
M1004 VGND a_85_270# X VNB nlowvt w=740000u l=150000u
+  ad=0p pd=0u as=2.072e+11p ps=2.04e+06u
M1005 VGND B1 a_85_270# VNB nlowvt w=740000u l=150000u
+  ad=0p pd=0u as=0p ps=0u
M1006 a_85_270# C1 a_603_392# VPB pshort w=1e+06u l=180000u
+  ad=2.6e+11p pd=2.52e+06u as=0p ps=0u
M1007 VPWR A2 a_317_392# VPB pshort w=1e+06u l=180000u
+  ad=0p pd=0u as=0p ps=0u
M1008 X a_85_270# VGND VNB nlowvt w=740000u l=150000u
+  ad=0p pd=0u as=0p ps=0u
M1009 a_85_270# C1 VGND VNB nlowvt w=740000u l=150000u
+  ad=0p pd=0u as=0p ps=0u
M1010 X a_85_270# VPWR VPB pshort w=1.12e+06u l=180000u
+  ad=3.024e+11p pd=2.78e+06u as=0p ps=0u
M1011 VPWR a_85_270# X VPB pshort w=1.12e+06u l=180000u
+  ad=0p pd=0u as=0p ps=0u
.ends


******* EOF

* Copyright 2020 The SkyWater PDK Authors
*
* Licensed under the Apache License, Version 2.0 (the "License");
* you may not use this file except in compliance with the License.
* You may obtain a copy of the License at
*
*     https://www.apache.org/licenses/LICENSE-2.0
*
* Unless required by applicable law or agreed to in writing, software
* distributed under the License is distributed on an "AS IS" BASIS,
* WITHOUT WARRANTIES OR CONDITIONS OF ANY KIND, either express or implied.
* See the License for the specific language governing permissions and
* limitations under the License.
*
* SPDX-License-Identifier: Apache-2.0


.subckt sky130_fd_sc_ms__a211o_4 A1 A2 B1 C1 VGND VNB VPB VPWR X
M1000 a_1064_123# A2 VGND VNB nlowvt w=640000u l=150000u
+  ad=3.584e+11p pd=3.68e+06u as=1.50765e+12p ps=1.284e+07u
M1001 X a_105_280# VGND VNB nlowvt w=740000u l=150000u
+  ad=4.144e+11p pd=4.08e+06u as=0p ps=0u
M1002 a_105_280# A1 a_1064_123# VNB nlowvt w=640000u l=150000u
+  ad=5.79525e+11p pd=5.76e+06u as=0p ps=0u
M1003 VPWR A1 a_517_392# VPB pshort w=1e+06u l=180000u
+  ad=1.7798e+12p pd=1.409e+07u as=1.065e+12p ps=1.013e+07u
M1004 a_517_392# A2 VPWR VPB pshort w=1e+06u l=180000u
+  ad=0p pd=0u as=0p ps=0u
M1005 a_105_280# B1 VGND VNB nlowvt w=640000u l=150000u
+  ad=0p pd=0u as=0p ps=0u
M1006 X a_105_280# VPWR VPB pshort w=1.12e+06u l=180000u
+  ad=6.048e+11p pd=5.56e+06u as=0p ps=0u
M1007 VGND a_105_280# X VNB nlowvt w=740000u l=150000u
+  ad=0p pd=0u as=0p ps=0u
M1008 X a_105_280# VGND VNB nlowvt w=740000u l=150000u
+  ad=0p pd=0u as=0p ps=0u
M1009 a_105_280# C1 a_605_392# VPB pshort w=1e+06u l=180000u
+  ad=2.7e+11p pd=2.54e+06u as=6.15e+11p ps=5.23e+06u
M1010 a_605_392# B1 a_517_392# VPB pshort w=1e+06u l=180000u
+  ad=0p pd=0u as=0p ps=0u
M1011 VPWR a_105_280# X VPB pshort w=1.12e+06u l=180000u
+  ad=0p pd=0u as=0p ps=0u
M1012 a_605_392# C1 a_105_280# VPB pshort w=1e+06u l=180000u
+  ad=0p pd=0u as=0p ps=0u
M1013 VGND B1 a_105_280# VNB nlowvt w=640000u l=150000u
+  ad=0p pd=0u as=0p ps=0u
M1014 VPWR A2 a_517_392# VPB pshort w=1e+06u l=180000u
+  ad=0p pd=0u as=0p ps=0u
M1015 X a_105_280# VPWR VPB pshort w=1.12e+06u l=180000u
+  ad=0p pd=0u as=0p ps=0u
M1016 VPWR a_105_280# X VPB pshort w=1.12e+06u l=180000u
+  ad=0p pd=0u as=0p ps=0u
M1017 a_1064_123# A1 a_105_280# VNB nlowvt w=640000u l=150000u
+  ad=0p pd=0u as=0p ps=0u
M1018 a_517_392# B1 a_605_392# VPB pshort w=1e+06u l=180000u
+  ad=0p pd=0u as=0p ps=0u
M1019 VGND a_105_280# X VNB nlowvt w=740000u l=150000u
+  ad=0p pd=0u as=0p ps=0u
M1020 a_105_280# C1 VGND VNB nlowvt w=640000u l=150000u
+  ad=0p pd=0u as=0p ps=0u
M1021 VGND C1 a_105_280# VNB nlowvt w=640000u l=150000u
+  ad=0p pd=0u as=0p ps=0u
M1022 a_517_392# A1 VPWR VPB pshort w=1e+06u l=180000u
+  ad=0p pd=0u as=0p ps=0u
M1023 VGND A2 a_1064_123# VNB nlowvt w=640000u l=150000u
+  ad=0p pd=0u as=0p ps=0u
.ends


******* EOF

* Copyright 2020 The SkyWater PDK Authors
*
* Licensed under the Apache License, Version 2.0 (the "License");
* you may not use this file except in compliance with the License.
* You may obtain a copy of the License at
*
*     https://www.apache.org/licenses/LICENSE-2.0
*
* Unless required by applicable law or agreed to in writing, software
* distributed under the License is distributed on an "AS IS" BASIS,
* WITHOUT WARRANTIES OR CONDITIONS OF ANY KIND, either express or implied.
* See the License for the specific language governing permissions and
* limitations under the License.
*
* SPDX-License-Identifier: Apache-2.0


.subckt sky130_fd_sc_ms__a211oi_1 A1 A2 B1 C1 VGND VNB VPB VPWR Y
M1000 a_71_368# A1 VPWR VPB pshort w=1.12e+06u l=180000u
+  ad=5.936e+11p pd=5.54e+06u as=4.032e+11p ps=2.96e+06u
M1001 Y A1 a_159_74# VNB nlowvt w=740000u l=150000u
+  ad=4.847e+11p pd=4.27e+06u as=1.554e+11p ps=1.9e+06u
M1002 a_357_368# B1 a_71_368# VPB pshort w=1.12e+06u l=180000u
+  ad=3.36e+11p pd=2.84e+06u as=0p ps=0u
M1003 a_159_74# A2 VGND VNB nlowvt w=740000u l=150000u
+  ad=0p pd=0u as=4.847e+11p ps=4.27e+06u
M1004 VGND B1 Y VNB nlowvt w=740000u l=150000u
+  ad=0p pd=0u as=0p ps=0u
M1005 VPWR A2 a_71_368# VPB pshort w=1.12e+06u l=180000u
+  ad=0p pd=0u as=0p ps=0u
M1006 Y C1 a_357_368# VPB pshort w=1.12e+06u l=180000u
+  ad=2.912e+11p pd=2.76e+06u as=0p ps=0u
M1007 Y C1 VGND VNB nlowvt w=740000u l=150000u
+  ad=0p pd=0u as=0p ps=0u
.ends


******* EOF

* Copyright 2020 The SkyWater PDK Authors
*
* Licensed under the Apache License, Version 2.0 (the "License");
* you may not use this file except in compliance with the License.
* You may obtain a copy of the License at
*
*     https://www.apache.org/licenses/LICENSE-2.0
*
* Unless required by applicable law or agreed to in writing, software
* distributed under the License is distributed on an "AS IS" BASIS,
* WITHOUT WARRANTIES OR CONDITIONS OF ANY KIND, either express or implied.
* See the License for the specific language governing permissions and
* limitations under the License.
*
* SPDX-License-Identifier: Apache-2.0


.subckt sky130_fd_sc_ms__a211oi_2 A1 A2 B1 C1 VGND VNB VPB VPWR Y
M1000 a_38_74# A2 VGND VNB nlowvt w=740000u l=150000u
+  ad=6.216e+11p pd=6.12e+06u as=6.438e+11p ps=6.18e+06u
M1001 Y B1 VGND VNB nlowvt w=740000u l=150000u
+  ad=7.4e+11p pd=4.96e+06u as=0p ps=0u
M1002 VGND A2 a_38_74# VNB nlowvt w=740000u l=150000u
+  ad=0p pd=0u as=0p ps=0u
M1003 a_117_368# B1 a_497_368# VPB pshort w=1.12e+06u l=180000u
+  ad=9.072e+11p pd=8.34e+06u as=9.072e+11p ps=8.34e+06u
M1004 VGND C1 Y VNB nlowvt w=740000u l=150000u
+  ad=0p pd=0u as=0p ps=0u
M1005 a_497_368# B1 a_117_368# VPB pshort w=1.12e+06u l=180000u
+  ad=0p pd=0u as=0p ps=0u
M1006 Y C1 a_497_368# VPB pshort w=1.12e+06u l=180000u
+  ad=3.024e+11p pd=2.78e+06u as=0p ps=0u
M1007 Y A1 a_38_74# VNB nlowvt w=740000u l=150000u
+  ad=0p pd=0u as=0p ps=0u
M1008 a_497_368# C1 Y VPB pshort w=1.12e+06u l=180000u
+  ad=0p pd=0u as=0p ps=0u
M1009 a_38_74# A1 Y VNB nlowvt w=740000u l=150000u
+  ad=0p pd=0u as=0p ps=0u
M1010 a_117_368# A1 VPWR VPB pshort w=1.12e+06u l=180000u
+  ad=0p pd=0u as=9.072e+11p ps=8.34e+06u
M1011 VPWR A1 a_117_368# VPB pshort w=1.12e+06u l=180000u
+  ad=0p pd=0u as=0p ps=0u
M1012 a_117_368# A2 VPWR VPB pshort w=1.12e+06u l=180000u
+  ad=0p pd=0u as=0p ps=0u
M1013 VPWR A2 a_117_368# VPB pshort w=1.12e+06u l=180000u
+  ad=0p pd=0u as=0p ps=0u
.ends


******* EOF

* Copyright 2020 The SkyWater PDK Authors
*
* Licensed under the Apache License, Version 2.0 (the "License");
* you may not use this file except in compliance with the License.
* You may obtain a copy of the License at
*
*     https://www.apache.org/licenses/LICENSE-2.0
*
* Unless required by applicable law or agreed to in writing, software
* distributed under the License is distributed on an "AS IS" BASIS,
* WITHOUT WARRANTIES OR CONDITIONS OF ANY KIND, either express or implied.
* See the License for the specific language governing permissions and
* limitations under the License.
*
* SPDX-License-Identifier: Apache-2.0


.subckt sky130_fd_sc_ms__a211oi_4 A1 A2 B1 C1 VGND VNB VPB VPWR Y
M1000 a_92_74# A1 Y VNB nlowvt w=740000u l=150000u
+  ad=1.0286e+12p pd=1.018e+07u as=1.0138e+12p ps=1.014e+07u
M1001 Y B1 VGND VNB nlowvt w=740000u l=150000u
+  ad=0p pd=0u as=8.288e+11p ps=8.16e+06u
M1002 Y C1 a_901_368# VPB pshort w=1.12e+06u l=180000u
+  ad=6.048e+11p pd=5.56e+06u as=1.4896e+12p ps=1.386e+07u
M1003 VGND A2 a_92_74# VNB nlowvt w=740000u l=150000u
+  ad=0p pd=0u as=0p ps=0u
M1004 a_901_368# C1 Y VPB pshort w=1.12e+06u l=180000u
+  ad=0p pd=0u as=0p ps=0u
M1005 VGND A2 a_92_74# VNB nlowvt w=740000u l=150000u
+  ad=0p pd=0u as=0p ps=0u
M1006 VPWR A2 a_77_368# VPB pshort w=1.12e+06u l=180000u
+  ad=1.2096e+12p pd=1.112e+07u as=2.0944e+12p ps=1.942e+07u
M1007 a_77_368# B1 a_901_368# VPB pshort w=1.12e+06u l=180000u
+  ad=0p pd=0u as=0p ps=0u
M1008 Y A1 a_92_74# VNB nlowvt w=740000u l=150000u
+  ad=0p pd=0u as=0p ps=0u
M1009 a_77_368# A2 VPWR VPB pshort w=1.12e+06u l=180000u
+  ad=0p pd=0u as=0p ps=0u
M1010 a_92_74# A2 VGND VNB nlowvt w=740000u l=150000u
+  ad=0p pd=0u as=0p ps=0u
M1011 VPWR A2 a_77_368# VPB pshort w=1.12e+06u l=180000u
+  ad=0p pd=0u as=0p ps=0u
M1012 a_92_74# A2 VGND VNB nlowvt w=740000u l=150000u
+  ad=0p pd=0u as=0p ps=0u
M1013 a_901_368# B1 a_77_368# VPB pshort w=1.12e+06u l=180000u
+  ad=0p pd=0u as=0p ps=0u
M1014 VGND C1 Y VNB nlowvt w=740000u l=150000u
+  ad=0p pd=0u as=0p ps=0u
M1015 Y C1 VGND VNB nlowvt w=740000u l=150000u
+  ad=0p pd=0u as=0p ps=0u
M1016 a_77_368# A2 VPWR VPB pshort w=1.12e+06u l=180000u
+  ad=0p pd=0u as=0p ps=0u
M1017 a_77_368# B1 a_901_368# VPB pshort w=1.12e+06u l=180000u
+  ad=0p pd=0u as=0p ps=0u
M1018 VGND B1 Y VNB nlowvt w=740000u l=150000u
+  ad=0p pd=0u as=0p ps=0u
M1019 Y A1 a_92_74# VNB nlowvt w=740000u l=150000u
+  ad=0p pd=0u as=0p ps=0u
M1020 VPWR A1 a_77_368# VPB pshort w=1.12e+06u l=180000u
+  ad=0p pd=0u as=0p ps=0u
M1021 a_901_368# B1 a_77_368# VPB pshort w=1.12e+06u l=180000u
+  ad=0p pd=0u as=0p ps=0u
M1022 a_77_368# A1 VPWR VPB pshort w=1.12e+06u l=180000u
+  ad=0p pd=0u as=0p ps=0u
M1023 Y C1 a_901_368# VPB pshort w=1.12e+06u l=180000u
+  ad=0p pd=0u as=0p ps=0u
M1024 VPWR A1 a_77_368# VPB pshort w=1.12e+06u l=180000u
+  ad=0p pd=0u as=0p ps=0u
M1025 a_901_368# C1 Y VPB pshort w=1.12e+06u l=180000u
+  ad=0p pd=0u as=0p ps=0u
M1026 a_77_368# A1 VPWR VPB pshort w=1.12e+06u l=180000u
+  ad=0p pd=0u as=0p ps=0u
M1027 a_92_74# A1 Y VNB nlowvt w=740000u l=150000u
+  ad=0p pd=0u as=0p ps=0u
.ends


******* EOF

* Copyright 2020 The SkyWater PDK Authors
*
* Licensed under the Apache License, Version 2.0 (the "License");
* you may not use this file except in compliance with the License.
* You may obtain a copy of the License at
*
*     https://www.apache.org/licenses/LICENSE-2.0
*
* Unless required by applicable law or agreed to in writing, software
* distributed under the License is distributed on an "AS IS" BASIS,
* WITHOUT WARRANTIES OR CONDITIONS OF ANY KIND, either express or implied.
* See the License for the specific language governing permissions and
* limitations under the License.
*
* SPDX-License-Identifier: Apache-2.0


.subckt sky130_fd_sc_ms__a21bo_1 A1 A2 B1_N VGND VNB VPB VPWR X
M1000 a_34_392# A1 VPWR VPB pshort w=1e+06u l=180000u
+  ad=5.3e+11p pd=5.06e+06u as=6.766e+11p ps=5.55e+06u
M1001 X a_194_136# VPWR VPB pshort w=1.12e+06u l=180000u
+  ad=2.912e+11p pd=2.76e+06u as=0p ps=0u
M1002 a_122_136# A2 VGND VNB nlowvt w=640000u l=150000u
+  ad=1.344e+11p pd=1.7e+06u as=5.6545e+11p ps=5.75e+06u
M1003 X a_194_136# VGND VNB nlowvt w=740000u l=150000u
+  ad=1.961e+11p pd=2.01e+06u as=0p ps=0u
M1004 VGND a_272_110# a_194_136# VNB nlowvt w=640000u l=150000u
+  ad=0p pd=0u as=2.496e+11p ps=2.06e+06u
M1005 a_194_136# a_272_110# a_34_392# VPB pshort w=1e+06u l=180000u
+  ad=2.6e+11p pd=2.52e+06u as=0p ps=0u
M1006 VPWR A2 a_34_392# VPB pshort w=1e+06u l=180000u
+  ad=0p pd=0u as=0p ps=0u
M1007 VPWR B1_N a_272_110# VPB pshort w=840000u l=180000u
+  ad=0p pd=0u as=2.184e+11p ps=2.2e+06u
M1008 VGND B1_N a_272_110# VNB nlowvt w=550000u l=150000u
+  ad=0p pd=0u as=1.5675e+11p ps=1.67e+06u
M1009 a_194_136# A1 a_122_136# VNB nlowvt w=640000u l=150000u
+  ad=0p pd=0u as=0p ps=0u
.ends


******* EOF

* Copyright 2020 The SkyWater PDK Authors
*
* Licensed under the Apache License, Version 2.0 (the "License");
* you may not use this file except in compliance with the License.
* You may obtain a copy of the License at
*
*     https://www.apache.org/licenses/LICENSE-2.0
*
* Unless required by applicable law or agreed to in writing, software
* distributed under the License is distributed on an "AS IS" BASIS,
* WITHOUT WARRANTIES OR CONDITIONS OF ANY KIND, either express or implied.
* See the License for the specific language governing permissions and